Circuit: * Z:\home\ostoja\Elektronika\peak_detector\great_simple_available.asc

WARNING: Less than two connections to node N003.  This node is used by B1.
Direct Newton iteration failed to find .op point.  (Use ".option noopiter" to skip.)
Starting Gmin stepping
Gmin = 10
Gmin = 1.07374
Gmin = 0.115292
Gmin = 0.0123794
Gmin = 0.00132923
Gmin = 0.000142725
Gmin = 1.5325e-005
Gmin = 1.6455e-006
Gmin = 1.76685e-007
Gmin = 1.89714e-008
Gmin = 2.03704e-009
Gmin = 2.18725e-010
Gmin = 2.34854e-011
Gmin = 2.52173e-012
Gmin = 2.70769e-013
Gmin = 0
Gmin stepping succeeded in finding the operating point.

Heightened Def Con from 2.12818e-006 ++++++++++++++++to 2.12918e-006
Heightened Def Con from 2.12918e-006 ++++++++++++++++to 2.1292e-006
Heightened Def Con from 2.1292e-006 to 2.1292e-006
Heightened Def Con from 5.31082e-006 ++++++++++++++++++++to 5.31096e-006
Heightened Def Con from 5.31096e-006 ++++to 5.31096e-006
Heightened Def Con from 5.31096e-006 +++++++to 5.31096e-006
Heightened Def Con from 6.28984e-006 ++++++++++++++++++++to 6.29097e-006
Heightened Def Con from 7.32229e-006 ++++++++++++++++++++to 7.32729e-006
Heightened Def Con from 7.32733e-006 ++to 7.32733e-006
Heightened Def Con from 7.32733e-006 ++to 7.32733e-006
Heightened Def Con from 7.32733e-006 ++to 7.32733e-006
Heightened Def Con from 7.32733e-006 to 7.32733e-006
Heightened Def Con from 1.02753e-005 ++++++++++++++++++++to 1.02765e-005
Heightened Def Con from 1.02765e-005 to 1.02765e-005
Heightened Def Con from 1.12142e-005 +++++++++++++++++to 1.12152e-005
Heightened Def Con from 1.12152e-005 +++++++++++++++++to 1.12156e-005
Heightened Def Con from 2.22888e-005 to 2.22888e-005
Heightened Def Con from 2.22888e-005 to 2.22888e-005
Heightened Def Con from 2.22888e-005 to 2.22888e-005
Heightened Def Con from 2.42724e-005 ++++++++++++++++++++to 2.42774e-005
Heightened Def Con from 2.42774e-005 +++++++to 2.42774e-005
Heightened Def Con from 2.42774e-005 ++++++to 2.42774e-005
Heightened Def Con from 2.62981e-005 ++++++++++++++++++++to 2.62992e-005
Heightened Def Con from 2.62993e-005 +++to 2.62993e-005
Heightened Def Con from 2.72657e-005 to 2.72657e-005
Heightened Def Con from 2.92044e-005 ++++++++++++++++++to 2.92094e-005
Heightened Def Con from 2.92888e-005 ++++++++++++++++++++to 2.92899e-005
Heightened Def Con from 2.92899e-005 +to 2.92899e-005
Heightened Def Con from 2.92899e-005 to 2.92899e-005
Heightened Def Con from 2.92899e-005 to 2.92899e-005
Heightened Def Con from 3.0296e-005 ++++++++++++++to 3.02961e-005
Heightened Def Con from 3.02961e-005 ++++++++++++++to 3.02961e-005
Heightened Def Con from 3.02961e-005 ++++++++++++++to 3.02961e-005
Heightened Def Con from 3.62145e-005 to 3.62145e-005
Heightened Def Con from 3.62933e-005 ++++++++++++++++++++to 3.62983e-005
Heightened Def Con from 4.22171e-005 +++++++++++++++++++to 4.22182e-005
Heightened Def Con from 4.52178e-005 +++++++++++++++++++to 4.5219e-005
Heightened Def Con from 4.52191e-005 +++++++++++++++++++to 4.52221e-005
Heightened Def Con from 4.82871e-005 to 4.82871e-005
Heightened Def Con from 4.82871e-005 to 4.82871e-005
Heightened Def Con from 5.52078e-005 ++++++++++++++to 5.52079e-005
Heightened Def Con from 6.22636e-005 ++++++++++++++++++++to 6.22648e-005
Heightened Def Con from 6.22649e-005 ++++++++++++++++++++to 6.2266e-005
Heightened Def Con from 6.22663e-005 to 6.22663e-005
Heightened Def Con from 6.22663e-005 ++to 6.22663e-005
Heightened Def Con from 6.22663e-005 ++to 6.22663e-005
Heightened Def Con from 6.22663e-005 ++to 6.22663e-005
Heightened Def Con from 6.22663e-005 +to 6.22663e-005
Heightened Def Con from 6.22663e-005 ++to 6.22663e-005
Heightened Def Con from 6.22663e-005 ++to 6.22663e-005
Heightened Def Con from 6.22663e-005 +++to 6.22663e-005
Heightened Def Con from 6.42779e-005 to 6.42779e-005
Heightened Def Con from 6.52402e-005 +++++++++++++++++to 6.52452e-005
Heightened Def Con from 6.62215e-005 +++++++++++++++++++to 6.62226e-005
Heightened Def Con from 6.62226e-005 to 6.62226e-005
Heightened Def Con from 6.62226e-005 to 6.62226e-005
Heightened Def Con from 6.62226e-005 +++++to 6.62226e-005
Heightened Def Con from 6.62226e-005 to 6.62226e-005
Heightened Def Con from 6.62227e-005 ++++++++++++++++++++to 6.62238e-005
Heightened Def Con from 7.12391e-005 ++++++++++++++++++to 7.12402e-005
Heightened Def Con from 7.12402e-005 ++++++++++++++++++to 7.12406e-005
Heightened Def Con from 7.22222e-005 ++++++++++++++to 7.22223e-005
Heightened Def Con from 7.32123e-005 +++++++++++++++++++to 7.32173e-005
Heightened Def Con from 7.32783e-005 +++to 7.32783e-005
Heightened Def Con from 7.42387e-005 to 7.42387e-005
Heightened Def Con from 7.42387e-005 to 7.42387e-005
Heightened Def Con from 7.42387e-005 to 7.42387e-005
Heightened Def Con from 7.52039e-005 to 7.52039e-005
Heightened Def Con from 7.72659e-005 ++++++++++++++++++++to 7.7267e-005
Heightened Def Con from 7.72673e-005 ++++++++++++++++++++to 7.72684e-005
Heightened Def Con from 7.82227e-005 to 7.82227e-005
Heightened Def Con from 7.82227e-005 to 7.82227e-005
Heightened Def Con from 7.82822e-005 ++++++++++++++to 7.82825e-005
Heightened Def Con from 8.02661e-005 ++++++++++++++++++++to 8.02672e-005
Heightened Def Con from 8.02675e-005 to 8.02675e-005
Heightened Def Con from 8.02675e-005 to 8.02675e-005
Heightened Def Con from 8.02675e-005 ++to 8.02675e-005
Heightened Def Con from 8.02675e-005 to 8.02675e-005
Heightened Def Con from 8.12818e-005 ++++++++++++++to 8.12821e-005
Heightened Def Con from 8.22139e-005 +to 8.22139e-005
Heightened Def Con from 8.32374e-005 ++++++++++++++++++to 8.32385e-005
Heightened Def Con from 8.32665e-005 ++++++++++++++++++++to 8.32676e-005
Heightened Def Con from 8.32679e-005 ++++++++++++++++++++to 8.3269e-005
Heightened Def Con from 8.32691e-005 to 8.32691e-005
Heightened Def Con from 8.32691e-005 to 8.32691e-005
Heightened Def Con from 8.32691e-005 to 8.32691e-005
Heightened Def Con from 8.32691e-005 +to 8.32691e-005
Heightened Def Con from 8.32691e-005 +to 8.32691e-005
Heightened Def Con from 8.32691e-005 to 8.32691e-005
Heightened Def Con from 8.32691e-005 to 8.32691e-005
Heightened Def Con from 8.32691e-005 +to 8.32691e-005
Heightened Def Con from 8.32691e-005 ++to 8.32691e-005
Heightened Def Con from 8.32691e-005 +++to 8.32691e-005
Heightened Def Con from 8.32691e-005 ++++++++++++++++++++to 8.32702e-005
Heightened Def Con from 8.32702e-005 +to 8.32702e-005
Heightened Def Con from 8.32702e-005 to 8.32702e-005
Heightened Def Con from 8.32702e-005 to 8.32702e-005
Heightened Def Con from 8.32702e-005 ++to 8.32702e-005
Heightened Def Con from 8.32702e-005 +++to 8.32702e-005
Heightened Def Con from 8.32703e-005 ++++++++++++++++++++to 8.32704e-005
Heightened Def Con from 8.32705e-005 ++++++++++++++++++++to 8.32716e-005
Heightened Def Con from 8.42817e-005 ++++++++++++++++++++to 8.42867e-005
Heightened Def Con from 8.82787e-005 +++++++++++++++++++to 8.8279e-005
Heightened Def Con from 8.8279e-005 to 8.8279e-005
Heightened Def Con from 8.92671e-005 ++++++++++++++++++++to 8.92683e-005
Heightened Def Con from 8.92683e-005 ++++++++++++++++++++to 8.92695e-005
Heightened Def Con from 8.92695e-005 to 8.92695e-005
Heightened Def Con from 9.02235e-005 +++++++++++++++++++to 9.02246e-005
Heightened Def Con from 9.2267e-005 ++++++++++++++++++++to 9.22681e-005
Heightened Def Con from 9.22682e-005 ++++++++++++++++++++to 9.22693e-005
Heightened Def Con from 9.22693e-005 to 9.22693e-005
Heightened Def Con from 9.22693e-005 to 9.22693e-005
Heightened Def Con from 9.22693e-005 +++to 9.22693e-005
Heightened Def Con from 9.3224e-005 ++++++++++++++to 9.32241e-005
Heightened Def Con from 9.32241e-005 ++++++++++++++to 9.32241e-005
Heightened Def Con from 9.32241e-005 ++++++++++++++to 9.32241e-005
Heightened Def Con from 9.32807e-005 ++++++++++++++++++++to 9.32857e-005
Heightened Def Con from 9.42158e-005 +++++++++++++++++++to 9.42208e-005
Heightened Def Con from 9.62759e-005 to 9.62759e-005
Heightened Def Con from 9.62759e-005 to 9.62759e-005
Heightened Def Con from 9.62759e-005 to 9.62759e-005
Heightened Def Con from 9.62759e-005 to 9.62759e-005
Heightened Def Con from 9.62759e-005 to 9.62759e-005
Heightened Def Con from 9.62759e-005 +to 9.62759e-005
Heightened Def Con from 9.62759e-005 to 9.62759e-005
Heightened Def Con from 9.62759e-005 to 9.62759e-005
Heightened Def Con from 9.62759e-005 to 9.62759e-005
Heightened Def Con from 9.62759e-005 to 9.62759e-005
Heightened Def Con from 9.62759e-005 to 9.62759e-005
Heightened Def Con from 9.62759e-005 to 9.62759e-005
Heightened Def Con from 9.62759e-005 to 9.62759e-005
Heightened Def Con from 9.62759e-005 to 9.62759e-005
Heightened Def Con from 9.62759e-005 to 9.62759e-005
Heightened Def Con from 9.62759e-005 to 9.62759e-005
Heightened Def Con from 9.62759e-005 to 9.62759e-005
Heightened Def Con from 9.62759e-005 to 9.62759e-005
Heightened Def Con from 9.62759e-005 to 9.62759e-005
Heightened Def Con from 9.62759e-005 to 9.62759e-005
Heightened Def Con from 9.62759e-005 to 9.62759e-005
Heightened Def Con from 9.62759e-005 to 9.62759e-005
Heightened Def Con from 9.62759e-005 to 9.62759e-005
Heightened Def Con from 9.62759e-005 to 9.62759e-005
Heightened Def Con from 9.62759e-005 to 9.62759e-005
Heightened Def Con from 9.62759e-005 to 9.62759e-005
Heightened Def Con from 9.62759e-005 ++to 9.62759e-005
Heightened Def Con from 9.62759e-005 ++to 9.62759e-005
Heightened Def Con from 9.62759e-005 to 9.62759e-005
Heightened Def Con from 9.62759e-005 to 9.62759e-005
Heightened Def Con from 9.62759e-005 to 9.62759e-005
Heightened Def Con from 9.62759e-005 to 9.62759e-005
Heightened Def Con from 9.62759e-005 to 9.62759e-005
Heightened Def Con from 9.62759e-005 to 9.62759e-005
Heightened Def Con from 9.62759e-005 to 9.62759e-005
Heightened Def Con from 9.62759e-005 to 9.62759e-005
Heightened Def Con from 9.62759e-005 to 9.62759e-005
Heightened Def Con from 9.62759e-005 to 9.62759e-005
Heightened Def Con from 9.62759e-005 to 9.62759e-005
Heightened Def Con from 9.62759e-005 to 9.62759e-005
Heightened Def Con from 9.62759e-005 ++to 9.62759e-005
Heightened Def Con from 9.62759e-005 to 9.62759e-005
Heightened Def Con from 9.62759e-005 to 9.62759e-005
Heightened Def Con from 9.62759e-005 +++to 9.62759e-005
Heightened Def Con from 9.62759e-005 ++to 9.62759e-005
Heightened Def Con from 9.62759e-005 +to 9.62759e-005
Heightened Def Con from 9.62759e-005 to 9.62759e-005
Heightened Def Con from 9.62759e-005 to 9.62759e-005
Heightened Def Con from 9.62759e-005 to 9.62759e-005
Heightened Def Con from 9.62759e-005 to 9.62759e-005
Heightened Def Con from 9.62759e-005 to 9.62759e-005
Heightened Def Con from 9.62759e-005 to 9.62759e-005
Heightened Def Con from 9.62759e-005 to 9.62759e-005
Heightened Def Con from 9.62759e-005 to 9.62759e-005
Heightened Def Con from 9.62759e-005 to 9.62759e-005
Heightened Def Con from 9.62759e-005 ++to 9.62759e-005
Heightened Def Con from 9.62759e-005 +to 9.62759e-005
Heightened Def Con from 9.62759e-005 to 9.62759e-005
Heightened Def Con from 9.62759e-005 to 9.62759e-005
Heightened Def Con from 9.62759e-005 to 9.62759e-005
Heightened Def Con from 9.62759e-005 to 9.62759e-005
Heightened Def Con from 9.62759e-005 to 9.62759e-005
Heightened Def Con from 9.62759e-005 to 9.62759e-005
Heightened Def Con from 9.62759e-005 to 9.62759e-005
Heightened Def Con from 9.62759e-005 to 9.62759e-005
Heightened Def Con from 9.62759e-005 to 9.62759e-005
Heightened Def Con from 9.62759e-005 to 9.62759e-005
Heightened Def Con from 9.62759e-005 to 9.62759e-005
Heightened Def Con from 9.62759e-005 to 9.62759e-005
Heightened Def Con from 9.62759e-005 to 9.62759e-005
Heightened Def Con from 9.62759e-005 to 9.62759e-005
Heightened Def Con from 9.62759e-005 to 9.62759e-005
Heightened Def Con from 9.62759e-005 +++to 9.62759e-005
Heightened Def Con from 9.62759e-005 to 9.62759e-005
Heightened Def Con from 9.62759e-005 to 9.62759e-005
Heightened Def Con from 9.62759e-005 to 9.62759e-005
Heightened Def Con from 9.62759e-005 to 9.62759e-005
Heightened Def Con from 9.62759e-005 to 9.62759e-005
Heightened Def Con from 9.62759e-005 to 9.62759e-005
Heightened Def Con from 9.62759e-005 to 9.62759e-005
Heightened Def Con from 9.62759e-005 to 9.62759e-005
Heightened Def Con from 9.62759e-005 to 9.62759e-005
Heightened Def Con from 9.62759e-005 to 9.62759e-005
Heightened Def Con from 9.62759e-005 to 9.62759e-005
Heightened Def Con from 9.62759e-005 to 9.62759e-005
Heightened Def Con from 9.62759e-005 to 9.62759e-005
Heightened Def Con from 9.62759e-005 to 9.62759e-005
Heightened Def Con from 9.62759e-005 to 9.62759e-005
Heightened Def Con from 9.62759e-005 to 9.62759e-005
Heightened Def Con from 9.62759e-005 to 9.62759e-005
Heightened Def Con from 9.62759e-005 to 9.62759e-005
Heightened Def Con from 9.62759e-005 to 9.62759e-005
Heightened Def Con from 9.62759e-005 +to 9.62759e-005
Heightened Def Con from 9.62759e-005 to 9.62759e-005
Heightened Def Con from 9.62759e-005 to 9.62759e-005
Heightened Def Con from 9.62759e-005 to 9.62759e-005
Heightened Def Con from 9.62759e-005 to 9.62759e-005
Heightened Def Con from 9.62759e-005 ++to 9.62759e-005
Heightened Def Con from 9.62759e-005 ++to 9.62759e-005
Heightened Def Con from 9.62759e-005 to 9.62759e-005
Heightened Def Con from 9.62759e-005 to 9.62759e-005
Heightened Def Con from 9.62759e-005 to 9.62759e-005
Heightened Def Con from 9.62759e-005 to 9.62759e-005
Heightened Def Con from 9.62759e-005 to 9.62759e-005
Heightened Def Con from 9.62759e-005 to 9.62759e-005
Heightened Def Con from 9.62759e-005 to 9.62759e-005
Heightened Def Con from 9.62759e-005 to 9.62759e-005
Heightened Def Con from 9.62759e-005 to 9.62759e-005
Heightened Def Con from 9.62759e-005 to 9.62759e-005
Heightened Def Con from 9.62759e-005 +++to 9.62759e-005
Heightened Def Con from 9.62759e-005 +++to 9.62759e-005
Heightened Def Con from 9.62759e-005 +++to 9.62759e-005
Heightened Def Con from 9.62759e-005 ++to 9.62759e-005
Heightened Def Con from 9.62759e-005 to 9.62759e-005
Heightened Def Con from 9.62759e-005 to 9.62759e-005
Heightened Def Con from 9.62759e-005 to 9.62759e-005
Heightened Def Con from 9.62759e-005 to 9.62759e-005
Heightened Def Con from 9.62759e-005 +to 9.62759e-005
Heightened Def Con from 9.62759e-005 to 9.62759e-005
Heightened Def Con from 9.62759e-005 to 9.62759e-005
Heightened Def Con from 9.62759e-005 to 9.62759e-005
Heightened Def Con from 9.62759e-005 to 9.62759e-005
Heightened Def Con from 9.62759e-005 to 9.62759e-005
Heightened Def Con from 9.62759e-005 to 9.62759e-005
Heightened Def Con from 9.62759e-005 to 9.62759e-005
Heightened Def Con from 9.62759e-005 to 9.62759e-005
Heightened Def Con from 9.62759e-005 +to 9.62759e-005
Heightened Def Con from 9.62759e-005 to 9.62759e-005
Heightened Def Con from 9.62759e-005 to 9.62759e-005
Heightened Def Con from 9.62759e-005 to 9.62759e-005
Heightened Def Con from 9.62759e-005 to 9.62759e-005
Heightened Def Con from 9.62759e-005 to 9.62759e-005
Heightened Def Con from 9.62759e-005 to 9.62759e-005
Heightened Def Con from 9.62759e-005 to 9.62759e-005
Heightened Def Con from 9.62759e-005 to 9.62759e-005
Heightened Def Con from 9.62759e-005 to 9.62759e-005
Heightened Def Con from 9.62759e-005 to 9.62759e-005
Heightened Def Con from 9.62759e-005 to 9.62759e-005
Heightened Def Con from 9.62759e-005 to 9.62759e-005
Heightened Def Con from 9.62759e-005 to 9.62759e-005
Heightened Def Con from 9.62759e-005 to 9.62759e-005
Heightened Def Con from 9.62759e-005 to 9.62759e-005
Heightened Def Con from 9.62759e-005 to 9.62759e-005
Heightened Def Con from 9.62759e-005 to 9.62759e-005
Heightened Def Con from 9.62759e-005 to 9.62759e-005
Heightened Def Con from 9.62759e-005 to 9.62759e-005
Heightened Def Con from 9.62759e-005 to 9.62759e-005
Heightened Def Con from 9.62759e-005 to 9.62759e-005
Heightened Def Con from 9.62759e-005 +to 9.62759e-005
Heightened Def Con from 9.62759e-005 to 9.62759e-005
Heightened Def Con from 9.62759e-005 to 9.62759e-005
Heightened Def Con from 9.62759e-005 to 9.62759e-005
Heightened Def Con from 9.62759e-005 to 9.62759e-005
Heightened Def Con from 9.62759e-005 to 9.62759e-005
Heightened Def Con from 9.62759e-005 to 9.62759e-005
Heightened Def Con from 9.62759e-005 to 9.62759e-005
Heightened Def Con from 9.62759e-005 to 9.62759e-005
Heightened Def Con from 9.62759e-005 to 9.62759e-005
Heightened Def Con from 9.62759e-005 to 9.62759e-005
Heightened Def Con from 9.62759e-005 to 9.62759e-005
Heightened Def Con from 9.62759e-005 to 9.62759e-005
Heightened Def Con from 9.62759e-005 to 9.62759e-005
Heightened Def Con from 9.62759e-005 ++++to 9.62759e-005
Heightened Def Con from 9.62759e-005 to 9.62759e-005
Heightened Def Con from 9.62759e-005 to 9.62759e-005
Heightened Def Con from 9.62759e-005 ++to 9.62759e-005
Heightened Def Con from 9.62759e-005 +++to 9.62759e-005
Heightened Def Con from 9.62759e-005 to 9.62759e-005
Heightened Def Con from 9.62759e-005 ++to 9.62759e-005
Heightened Def Con from 9.62759e-005 +++to 9.62759e-005
Heightened Def Con from 9.62759e-005 to 9.62759e-005
Heightened Def Con from 9.62759e-005 +++to 9.62759e-005
Heightened Def Con from 9.62759e-005 to 9.62759e-005
Heightened Def Con from 9.62759e-005 to 9.62759e-005
Heightened Def Con from 9.62759e-005 +to 9.62759e-005
Heightened Def Con from 9.62759e-005 +to 9.62759e-005
Heightened Def Con from 9.62759e-005 to 9.62759e-005
Heightened Def Con from 9.62759e-005 to 9.62759e-005
Heightened Def Con from 9.62759e-005 to 9.62759e-005
Heightened Def Con from 9.62759e-005 to 9.62759e-005
Heightened Def Con from 9.62759e-005 to 9.62759e-005
Heightened Def Con from 9.62759e-005 +to 9.62759e-005
Heightened Def Con from 9.62759e-005 to 9.62759e-005
Heightened Def Con from 9.62759e-005 +to 9.62759e-005
Heightened Def Con from 9.62759e-005 +++to 9.62759e-005
Heightened Def Con from 9.62759e-005 +++to 9.62759e-005
Heightened Def Con from 9.62759e-005 +++to 9.62759e-005
Heightened Def Con from 9.62759e-005 +to 9.62759e-005
Heightened Def Con from 9.62759e-005 +to 9.62759e-005
Heightened Def Con from 9.62759e-005 to 9.62759e-005
Heightened Def Con from 9.62759e-005 to 9.62759e-005
Heightened Def Con from 9.62759e-005 to 9.62759e-005
Heightened Def Con from 9.62759e-005 to 9.62759e-005
Heightened Def Con from 9.62759e-005 to 9.62759e-005
Heightened Def Con from 9.62759e-005 +to 9.62759e-005
Heightened Def Con from 9.62759e-005 +++to 9.62759e-005
Heightened Def Con from 9.62759e-005 +++to 9.62759e-005
Heightened Def Con from 9.62759e-005 to 9.62759e-005
Heightened Def Con from 9.72788e-005 +++++++++++++++++++to 9.72789e-005
Heightened Def Con from 9.72789e-005 to 9.72789e-005
Heightened Def Con from 9.72789e-005 to 9.72789e-005
Heightened Def Con from 9.82361e-005 ++++++++++++++++++to 9.82371e-005
Heightened Def Con from 9.82371e-005 ++++++++++++++++++to 9.82375e-005
Heightened Def Con from 9.82675e-005 ++++++++++++++++++++to 9.82686e-005
Heightened Def Con from 0.000104236 to 0.000104236
Heightened Def Con from 0.000106217 ++++++++++++++++++++to 0.000106219
Heightened Def Con from 0.000112218 to 0.000112218
Heightened Def Con from 0.00011728 ++++to 0.00011728
Heightened Def Con from 0.00011728 +++to 0.00011728
Heightened Def Con from 0.000118219 ++++++++++++++++++++to 0.00011822
Heightened Def Con from 0.00011822 ++++++++++++++++++++to 0.000118224
Heightened Def Con from 0.000119234 +++++++++++++++++++to 0.000119235
Heightened Def Con from 0.000119235 +++++++++++++++++++to 0.000119236
Heightened Def Con from 0.000119236 ++++++++++++++++++++to 0.000119237
Heightened Def Con from 0.000119237 +++++++++++++++++to 0.000119237
Heightened Def Con from 0.000119237 ++++++++++++++++++++to 0.00011924
Heightened Def Con from 0.00012028 ++++++++++++++++++++to 0.000120281
Heightened Def Con from 0.000121279 to 0.000121279
Heightened Def Con from 0.000122234 +++++++++++++++++++to 0.000122235
Heightened Def Con from 0.000122235 +++++++++++++++++++to 0.000122236
Heightened Def Con from 0.000123274 +to 0.000123274
Heightened Def Con from 0.000123274 +to 0.000123274
Heightened Def Con from 0.000123274 ++++++to 0.000123274
Heightened Def Con from 0.000123274 to 0.000123274
Heightened Def Con from 0.000123274 ++++to 0.000123274
Heightened Def Con from 0.000123274 to 0.000123274
Heightened Def Con from 0.000124219 ++++++++++++++++++++to 0.00012422
Heightened Def Con from 0.00012422 ++++++++++++++++++++to 0.000124224
Heightened Def Con from 0.000125269 ++++++++++++++++++++to 0.00012527
Heightened Def Con from 0.000126225 +++++++++++++++++++to 0.000126226
Heightened Def Con from 0.00012628 ++++++++++++++++++++to 0.000126281
Heightened Def Con from 0.000126281 to 0.000126281
Heightened Def Con from 0.000127279 +++++++++++++++++++to 0.00012728
Heightened Def Con from 0.000128269 ++++++++++++++++++++to 0.00012827
Heightened Def Con from 0.000129225 +to 0.000129225
Heightened Def Con from 0.000129225 +to 0.000129225
Heightened Def Con from 0.00013022 +++++++++++++++to 0.00013022
Heightened Def Con from 0.00013022 +++++++++++++++to 0.00013022
Heightened Def Con from 0.00013022 +++++++++++++++to 0.00013022
Heightened Def Con from 0.000132225 to 0.000132225
Heightened Def Con from 0.00013322 +to 0.00013322
Heightened Def Con from 0.000134712 to 0.000134712
Heightened Def Con from 0.000136279 to 0.000136279
Heightened Def Con from 0.000136279 to 0.000136279
Heightened Def Con from 0.000136279 to 0.000136279
Heightened Def Con from 0.000137233 +++++++++++++++++++to 0.000137235
Heightened Def Con from 0.000138226 +to 0.000138226
Heightened Def Con from 0.00013828 ++++++++++++++++++++to 0.000138281
Heightened Def Con from 0.000142221 to 0.000142221
Heightened Def Con from 0.000142221 to 0.000142221
Heightened Def Con from 0.000142221 to 0.000142221
Heightened Def Con from 0.000142221 ++++++++++++++++++++to 0.000142222
Heightened Def Con from 0.000142222 ++++++++++++++++++++to 0.000142226
Heightened Def Con from 0.000147225 +++++++++++++++++++to 0.00014723
Heightened Def Con from 0.000149271 ++++++++++++++++to 0.000149271
Heightened Def Con from 0.00015028 ++++++++++++++++++++to 0.000150281
Heightened Def Con from 0.000153281 ++++++++++++++++++++to 0.000153282
Heightened Def Con from 0.00015522 to 0.00015522
Heightened Def Con from 0.00015522 to 0.00015522
Heightened Def Con from 0.00015522 to 0.00015522
Heightened Def Con from 0.000155274 ++++++++++++++++++++to 0.000155279
Heightened Def Con from 0.000155279 +to 0.000155279
Heightened Def Con from 0.000155279 to 0.000155279
Heightened Def Con from 0.000155279 to 0.000155279
Heightened Def Con from 0.000155279 to 0.000155279
Heightened Def Con from 0.000155279 to 0.000155279
Heightened Def Con from 0.000155279 to 0.000155279
Heightened Def Con from 0.000155279 +++to 0.000155279
Heightened Def Con from 0.000155279 +to 0.000155279
Heightened Def Con from 0.000155279 to 0.000155279
Heightened Def Con from 0.000155279 +to 0.000155279
Heightened Def Con from 0.000155279 to 0.000155279
Heightened Def Con from 0.000155279 +++to 0.000155279
Heightened Def Con from 0.000155279 ++to 0.000155279
Heightened Def Con from 0.000155279 +to 0.000155279
Heightened Def Con from 0.000155279 to 0.000155279
Heightened Def Con from 0.000155279 +++to 0.000155279
Heightened Def Con from 0.000155279 +++to 0.000155279
Heightened Def Con from 0.000155279 +++++++to 0.000155279
Heightened Def Con from 0.000155279 to 0.000155279
Heightened Def Con from 0.000156281 ++++++++++++++++++++to 0.000156282
Heightened Def Con from 0.000157227 to 0.000157227
Heightened Def Con from 0.000157227 to 0.000157227
Heightened Def Con from 0.000157227 to 0.000157227
Heightened Def Con from 0.000157227 to 0.000157227
Heightened Def Con from 0.000157227 to 0.000157227
Heightened Def Con from 0.000157227 to 0.000157227
Heightened Def Con from 0.000157277 ++++++++++++++++++++to 0.000157278
Heightened Def Con from 0.000157278 to 0.000157278
Heightened Def Con from 0.000162278 ++++++++++++++++++++to 0.00016228
Heightened Def Con from 0.00016228 to 0.00016228
Heightened Def Con from 0.00016328 +++++++++++++++++++to 0.00016328
Heightened Def Con from 0.000164271 +++++++++++++++to 0.000164272
Heightened Def Con from 0.000167229 +++++++++++++++++++to 0.000167231
Heightened Def Con from 0.000167231 ++++++++++++++++++to 0.000167231
Heightened Def Con from 0.000167231 ++++++++++++++++to 0.000167231
Heightened Def Con from 0.000167231 +++++++++++++++to 0.000167231
Heightened Def Con from 0.000167231 to 0.000167231
Heightened Def Con from 0.000169225 ++++++++++++++++++++to 0.000169226
Heightened Def Con from 0.000169226 ++++++++++++++++++++to 0.00016923
Heightened Def Con from 0.00016928 ++to 0.00016928
Heightened Def Con from 0.00017323 +++++++++++++++++++to 0.000173231
Heightened Def Con from 0.000173231 +++++++++++++++++to 0.000173231
Heightened Def Con from 0.000173231 ++++++++++++++++++++to 0.000173234
Heightened Def Con from 0.000176277 +++++++++++++++to 0.000176277
Heightened Def Con from 0.000176277 +++++++++++++++to 0.000176277
Heightened Def Con from 0.000176277 +++++++++++++++to 0.000176277
Heightened Def Con from 0.000176277 +++++++++++++++to 0.000176277
Heightened Def Con from 0.000177223 +++++++++++++++to 0.000177224
Heightened Def Con from 0.000177224 +++++++++++++++to 0.000177224
Heightened Def Con from 0.000177224 +++++++++++++++to 0.000177224
Heightened Def Con from 0.000178229 +++++++++++++++++++to 0.000178231
Heightened Def Con from 0.000178231 ++++++++++++++++++to 0.000178231
Heightened Def Con from 0.000178231 +++++++++++++++to 0.000178231
Heightened Def Con from 0.000178231 to 0.000178231
Heightened Def Con from 0.000178231 to 0.000178231
Heightened Def Con from 0.000178231 to 0.000178231
Heightened Def Con from 0.000178231 +++to 0.000178231
Heightened Def Con from 0.000178231 +++to 0.000178231
Heightened Def Con from 0.000178231 to 0.000178231
Heightened Def Con from 0.000178231 ++to 0.000178231
Heightened Def Con from 0.000178231 +to 0.000178231
Heightened Def Con from 0.000178231 +++to 0.000178231
Heightened Def Con from 0.000178231 to 0.000178231
Heightened Def Con from 0.00017827 to 0.00017827
Heightened Def Con from 0.00017827 to 0.00017827
Heightened Def Con from 0.00017827 to 0.00017827
Heightened Def Con from 0.00017827 to 0.00017827
Heightened Def Con from 0.00017827 to 0.00017827
Heightened Def Con from 0.00017827 +++++++++++to 0.00017827
Heightened Def Con from 0.00017827 to 0.00017827
Heightened Def Con from 0.000178273 ++++++++++++++to 0.000178273
Heightened Def Con from 0.000178702 to 0.000178702
Heightened Def Con from 0.000178702 to 0.000178702
Heightened Def Con from 0.000181701 to 0.000181701
Heightened Def Con from 0.000181701 to 0.000181701
Heightened Def Con from 0.000182218 to 0.000182218
Heightened Def Con from 0.000183271 to 0.000183271
Heightened Def Con from 0.000183271 to 0.000183271
Heightened Def Con from 0.000183271 to 0.000183271
Heightened Def Con from 0.000183271 to 0.000183271
Heightened Def Con from 0.000183271 +to 0.000183271
Heightened Def Con from 0.000183271 +++to 0.000183271
Heightened Def Con from 0.000183271 to 0.000183271
Heightened Def Con from 0.000185217 to 0.000185217
Heightened Def Con from 0.000185224 +to 0.000185224
Heightened Def Con from 0.000186228 +++++++++++++++to 0.000186229
Heightened Def Con from 0.000186271 to 0.000186271
Heightened Def Con from 0.000186271 to 0.000186271
Heightened Def Con from 0.000186271 to 0.000186271
Heightened Def Con from 0.000186271 +to 0.000186271
Heightened Def Con from 0.000186271 to 0.000186271
Heightened Def Con from 0.000186271 +++to 0.000186271
Heightened Def Con from 0.000186271 to 0.000186271
Heightened Def Con from 0.000186271 +to 0.000186271
Heightened Def Con from 0.000186271 +to 0.000186271
Heightened Def Con from 0.000186271 ++++to 0.000186271
Heightened Def Con from 0.000186271 +++to 0.000186271
Heightened Def Con from 0.000186271 to 0.000186271
Heightened Def Con from 0.000188277 to 0.000188277
Heightened Def Con from 0.000188277 to 0.000188277
Heightened Def Con from 0.00019128 to 0.00019128
Heightened Def Con from 0.00019128 to 0.00019128
Heightened Def Con from 0.000192226 +++++++++++++++to 0.000192226
Heightened Def Con from 0.000192226 +++++++++++++++to 0.000192226
Heightened Def Con from 0.000192226 +++++++++++++++to 0.000192226
Heightened Def Con from 0.000194279 ++++++++++++++++++++to 0.00019428
Heightened Def Con from 0.000197224 ++++++++++++++++++++to 0.000197226
Heightened Def Con from 0.000197226 ++++++++++++++++++++to 0.00019723
Heightened Def Con from 0.00019928 to 0.00019928
Heightened Def Con from 0.00019928 to 0.00019928
Heightened Def Con from 0.000202275 ++++++++++++++++++++to 0.00020228
Heightened Def Con from 0.000205225 +++++to 0.000205225
Heightened Def Con from 0.000208272 to 0.000208272
Heightened Def Con from 0.00020928 ++++++++++++++++++++to 0.000209281
Heightened Def Con from 0.000210228 +++++++++++++++++++to 0.000210229
Heightened Def Con from 0.000210229 ++++++++++++++++++to 0.000210229
Heightened Def Con from 0.000210229 ++++++++++++++++to 0.000210229
Heightened Def Con from 0.000210229 to 0.000210229
Heightened Def Con from 0.000210229 +to 0.000210229
Heightened Def Con from 0.000210229 +++++++++++++to 0.000210229
Heightened Def Con from 0.000210229 to 0.000210229
Heightened Def Con from 0.000211225 ++++++++++++++++++++to 0.000211226
Heightened Def Con from 0.000211226 ++++++++++++++++++++to 0.00021123
Heightened Def Con from 0.000212227 to 0.000212227
Heightened Def Con from 0.000213271 to 0.000213271
Heightened Def Con from 0.000213271 to 0.000213271
Heightened Def Con from 0.00021328 ++++++++++++++++++++to 0.000213281
Heightened Def Con from 0.000214228 +++++++++++++++to 0.000214228
Heightened Def Con from 0.000214228 +++++++++++++++to 0.000214228
Heightened Def Con from 0.000214228 +++++++++++++++to 0.000214228
Heightened Def Con from 0.000214698 to 0.000214698
Heightened Def Con from 0.000215225 to 0.000215225
Heightened Def Con from 0.000218276 ++++++++++++++++++++to 0.000218278
Heightened Def Con from 0.000218278 to 0.000218278
Heightened Def Con from 0.000219226 to 0.000219226
Heightened Def Con from 0.000222228 +++++++++++++++to 0.000222228
Heightened Def Con from 0.000222228 +++++++++++++++to 0.000222228
Heightened Def Con from 0.000222228 +++++++++++++++to 0.000222228
Heightened Def Con from 0.000222277 ++++++++++++++++++++to 0.000222282
Heightened Def Con from 0.000222282 to 0.000222282
Heightened Def Con from 0.000222282 to 0.000222282
Heightened Def Con from 0.000222282 +++to 0.000222282
Heightened Def Con from 0.000222282 to 0.000222282
Heightened Def Con from 0.000222282 to 0.000222282
Heightened Def Con from 0.000222282 +to 0.000222282
Heightened Def Con from 0.000222282 +to 0.000222282
Heightened Def Con from 0.000222282 to 0.000222282
Heightened Def Con from 0.000222282 +to 0.000222282
Heightened Def Con from 0.000222282 +++to 0.000222282
Heightened Def Con from 0.000222282 +++to 0.000222282
Heightened Def Con from 0.000222282 ++++++to 0.000222282
Heightened Def Con from 0.000222282 to 0.000222282
Heightened Def Con from 0.000223226 to 0.000223226
Heightened Def Con from 0.000224277 ++++++++++++++++++++to 0.000224278
Heightened Def Con from 0.000226227 +++++++++++++++to 0.000226228
Heightened Def Con from 0.000226277 +to 0.000226277
Heightened Def Con from 0.000226277 +to 0.000226277
Heightened Def Con from 0.000226277 +to 0.000226277
Heightened Def Con from 0.000227226 ++++++++++++++++++++to 0.000227227
Heightened Def Con from 0.000227227 ++++++++++++++++++++to 0.000227231
Heightened Def Con from 0.000227271 to 0.000227271
Heightened Def Con from 0.000227271 to 0.000227271
Heightened Def Con from 0.000227271 to 0.000227271
Heightened Def Con from 0.000227271 +to 0.000227271
Heightened Def Con from 0.000227271 +to 0.000227271
Heightened Def Con from 0.000227271 +to 0.000227271
Heightened Def Con from 0.000227271 +to 0.000227271
Heightened Def Con from 0.000227271 to 0.000227271
Heightened Def Con from 0.000227271 to 0.000227271
Heightened Def Con from 0.000227271 to 0.000227271
Heightened Def Con from 0.000227271 to 0.000227271
Heightened Def Con from 0.000227271 to 0.000227271
Heightened Def Con from 0.000227271 to 0.000227271
Heightened Def Con from 0.000227271 to 0.000227271
Heightened Def Con from 0.000227271 to 0.000227271
Heightened Def Con from 0.000227271 to 0.000227271
Heightened Def Con from 0.000227271 to 0.000227271
Heightened Def Con from 0.000227271 to 0.000227271
Heightened Def Con from 0.000227271 to 0.000227271
Heightened Def Con from 0.000227271 to 0.000227271
Heightened Def Con from 0.000227271 to 0.000227271
Heightened Def Con from 0.000227271 to 0.000227271
Heightened Def Con from 0.000227271 to 0.000227271
Heightened Def Con from 0.000227271 to 0.000227271
Heightened Def Con from 0.000227271 +to 0.000227271
Heightened Def Con from 0.000227271 to 0.000227271
Heightened Def Con from 0.000227271 +to 0.000227271
Heightened Def Con from 0.000227271 to 0.000227271
Heightened Def Con from 0.000227271 to 0.000227271
Heightened Def Con from 0.000227271 to 0.000227271
Heightened Def Con from 0.000227271 to 0.000227271
Heightened Def Con from 0.000227271 to 0.000227271
Heightened Def Con from 0.000227271 to 0.000227271
Heightened Def Con from 0.000227271 to 0.000227271
Heightened Def Con from 0.000227271 +to 0.000227271
Heightened Def Con from 0.000227271 to 0.000227271
Heightened Def Con from 0.000227271 to 0.000227271
Heightened Def Con from 0.000227271 +to 0.000227271
Heightened Def Con from 0.000227271 to 0.000227271
Heightened Def Con from 0.000227271 +to 0.000227271
Heightened Def Con from 0.000227271 +to 0.000227271
Heightened Def Con from 0.000227271 +to 0.000227271
Heightened Def Con from 0.000227271 +to 0.000227271
Heightened Def Con from 0.000227271 +to 0.000227271
Heightened Def Con from 0.000227271 to 0.000227271
Heightened Def Con from 0.000227271 to 0.000227271
Heightened Def Con from 0.000227271 to 0.000227271
Heightened Def Con from 0.000227271 to 0.000227271
Heightened Def Con from 0.000227271 to 0.000227271
Heightened Def Con from 0.000227271 to 0.000227271
Heightened Def Con from 0.000227271 +to 0.000227271
Heightened Def Con from 0.000227271 to 0.000227271
Heightened Def Con from 0.000227271 +to 0.000227271
Heightened Def Con from 0.000227271 +++++++++++++to 0.000227271
Heightened Def Con from 0.000227271 to 0.000227271
Heightened Def Con from 0.000230227 +++++++++++++++to 0.000230227
Heightened Def Con from 0.000230227 +++++++++++++++to 0.000230227
Heightened Def Con from 0.000230227 +++++++++++++++to 0.000230227
Heightened Def Con from 0.000233226 to 0.000233226
Heightened Def Con from 0.000234227 +++++++++++++++to 0.000234227
Heightened Def Con from 0.000234278 ++++++++++++++++++++to 0.000234279
Heightened Def Con from 0.000235279 ++++++++++++++++++++to 0.00023528
Heightened Def Con from 0.000237226 to 0.000237226
Heightened Def Con from 0.000237226 to 0.000237226
Heightened Def Con from 0.000237226 to 0.000237226
Heightened Def Con from 0.000237226 to 0.000237226
Heightened Def Con from 0.000237226 to 0.000237226
Heightened Def Con from 0.000238278 +to 0.000238278
Heightened Def Con from 0.000241227 ++++++++++++++++++++to 0.000241228
Heightened Def Con from 0.000241228 ++++++++++++++++++++to 0.000241232
Heightened Def Con from 0.000243227 +++++++++++++++to 0.000243227
Heightened Def Con from 0.000243227 +++++++++++++++to 0.000243227
Heightened Def Con from 0.000245278 +++++++++++++++++to 0.000245279
Heightened Def Con from 0.000245279 to 0.000245279
Heightened Def Con from 0.000245279 ++++++to 0.000245279
Heightened Def Con from 0.000245279 ++++++to 0.000245279
Heightened Def Con from 0.000245697 to 0.000245697
Heightened Def Con from 0.000247227 to 0.000247227
Heightened Def Con from 0.000251278 +to 0.000251278
Heightened Def Con from 0.000253272 to 0.000253272
Heightened Def Con from 0.000253272 to 0.000253272
Heightened Def Con from 0.000253272 to 0.000253272
Heightened Def Con from 0.000253272 to 0.000253272
Heightened Def Con from 0.000253272 to 0.000253272
Heightened Def Con from 0.000253272 ++++++to 0.000253272
Heightened Def Con from 0.000253272 to 0.000253272
Heightened Def Con from 0.000254278 ++++++++++++++++++++to 0.000254279
Heightened Def Con from 0.000255278 ++++++++++++++++++++to 0.000255279
Heightened Def Con from 0.000256227 +++++++++++++++to 0.000256227
Heightened Def Con from 0.000257227 +++++++++++++++to 0.000257227
Heightened Def Con from 0.000257227 +++++++++++++++to 0.000257227
Heightened Def Con from 0.000258271 to 0.000258271
Heightened Def Con from 0.000258271 to 0.000258271
Heightened Def Con from 0.000258271 to 0.000258271
Heightened Def Con from 0.000258271 ++to 0.000258271
Heightened Def Con from 0.000258271 ++++++to 0.000258271
Heightened Def Con from 0.000258271 to 0.000258271
Heightened Def Con from 0.000260227 to 0.000260227
Heightened Def Con from 0.000260227 to 0.000260227
Heightened Def Con from 0.000260227 to 0.000260227
Heightened Def Con from 0.000261227 +++++++++++++++to 0.000261227
Heightened Def Con from 0.000261271 +to 0.000261271
Heightened Def Con from 0.000261271 +++++++++++++to 0.000261271
Heightened Def Con from 0.000261271 to 0.000261271
Heightened Def Con from 0.000262277 +to 0.000262277
Heightened Def Con from 0.000264277 ++++++++++++++++to 0.000264277
Heightened Def Con from 0.000268277 ++++++++++++++++++++to 0.000268278
Heightened Def Con from 0.000268278 to 0.000268278
Heightened Def Con from 0.000268278 to 0.000268278
Heightened Def Con from 0.000269277 ++++++++++++++++++++to 0.000269278
Heightened Def Con from 0.000269278 to 0.000269278
Heightened Def Con from 0.000269278 +++++++++++++to 0.000269278
Heightened Def Con from 0.000270228 to 0.000270228
Heightened Def Con from 0.000270228 to 0.000270228
Heightened Def Con from 0.000270228 to 0.000270228
Heightened Def Con from 0.000272276 ++++++++++++++++++++to 0.000272277
Heightened Def Con from 0.000272277 to 0.000272277
Heightened Def Con from 0.000273228 +++++++++++++++to 0.000273228
Heightened Def Con from 0.000273276 ++++++++++++++++++++to 0.000273277
Heightened Def Con from 0.000274228 +++++++++++++++to 0.000274228
Heightened Def Con from 0.000274276 +++++++++++++++to 0.000274276
Heightened Def Con from 0.000275228 +to 0.000275228
Heightened Def Con from 0.000275228 +to 0.000275228
Heightened Def Con from 0.000276228 +to 0.000276228
Heightened Def Con from 0.000276271 to 0.000276271
Heightened Def Con from 0.000276271 to 0.000276271
Heightened Def Con from 0.000276271 to 0.000276271
Heightened Def Con from 0.000276271 to 0.000276271
Heightened Def Con from 0.000276271 +++to 0.000276271
Heightened Def Con from 0.000276271 ++to 0.000276271
Heightened Def Con from 0.000276271 to 0.000276271
Heightened Def Con from 0.000276271 +to 0.000276271
Heightened Def Con from 0.000276271 to 0.000276271
Heightened Def Con from 0.000276271 to 0.000276271
Heightened Def Con from 0.000276271 to 0.000276271
Heightened Def Con from 0.000276271 to 0.000276271
Heightened Def Con from 0.000276271 to 0.000276271
Heightened Def Con from 0.000276271 to 0.000276271
Heightened Def Con from 0.000276271 to 0.000276271
Heightened Def Con from 0.000276271 +to 0.000276271
Heightened Def Con from 0.000276271 to 0.000276271
Heightened Def Con from 0.000276271 to 0.000276271
Heightened Def Con from 0.000276271 to 0.000276271
Heightened Def Con from 0.000276271 to 0.000276271
Heightened Def Con from 0.000276271 to 0.000276271
Heightened Def Con from 0.000276271 to 0.000276271
Heightened Def Con from 0.000276271 to 0.000276271
Heightened Def Con from 0.000276271 to 0.000276271
Heightened Def Con from 0.000276271 to 0.000276271
Heightened Def Con from 0.000276271 to 0.000276271
Heightened Def Con from 0.000276271 to 0.000276271
Heightened Def Con from 0.000276271 to 0.000276271
Heightened Def Con from 0.000276271 to 0.000276271
Heightened Def Con from 0.000276271 to 0.000276271
Heightened Def Con from 0.000276271 +to 0.000276271
Heightened Def Con from 0.000276271 to 0.000276271
Heightened Def Con from 0.000276271 to 0.000276271
Heightened Def Con from 0.000276271 to 0.000276271
Heightened Def Con from 0.000276271 +to 0.000276271
Heightened Def Con from 0.000276271 ++++++to 0.000276271
Heightened Def Con from 0.000276271 to 0.000276271
Heightened Def Con from 0.000277228 +++++++++++++++++++to 0.000277229
Heightened Def Con from 0.000277229 +++++++++++++++++to 0.000277229
Heightened Def Con from 0.000277229 to 0.000277229
Heightened Def Con from 0.000277229 to 0.000277229
Heightened Def Con from 0.000278228 to 0.000278228
Heightened Def Con from 0.000279229 to 0.000279229
Heightened Def Con from 0.000279229 to 0.000279229
Heightened Def Con from 0.000279229 to 0.000279229
Heightened Def Con from 0.000279229 to 0.000279229
Heightened Def Con from 0.000280229 to 0.000280229
Heightened Def Con from 0.000282229 +++++++++++++++++++to 0.00028223
Heightened Def Con from 0.00028223 +++++++++++++++++to 0.00028223
Heightened Def Con from 0.00028223 to 0.00028223
Heightened Def Con from 0.00028223 +++++++++++++++++to 0.000282231
Heightened Def Con from 0.000282273 ++++++++++++++to 0.000282273
Heightened Def Con from 0.000282273 ++++++++++++++to 0.000282273
Heightened Def Con from 0.000283229 +++++++++++++++to 0.000283229
Heightened Def Con from 0.000285272 ++++++++++++++to 0.000285272
Heightened Def Con from 0.000286272 ++++++++++++++++++++to 0.000286277
Heightened Def Con from 0.000286277 +to 0.000286277
Heightened Def Con from 0.000286277 +to 0.000286277
Heightened Def Con from 0.000286277 +to 0.000286277
Heightened Def Con from 0.000286277 ++++to 0.000286277
Heightened Def Con from 0.000286277 ++++++++++++to 0.000286277
Heightened Def Con from 0.000286277 to 0.000286277
Heightened Def Con from 0.000287231 +to 0.000287231
Heightened Def Con from 0.000287231 +to 0.000287231
Heightened Def Con from 0.000287231 +to 0.000287231
Heightened Def Con from 0.000287231 +to 0.000287231
Heightened Def Con from 0.000287231 +to 0.000287231
Heightened Def Con from 0.000287231 +to 0.000287231
Heightened Def Con from 0.000291698 to 0.000291698
Heightened Def Con from 0.000291698 to 0.000291698
Heightened Def Con from 0.000291698 to 0.000291698
Heightened Def Con from 0.000291698 to 0.000291698
Heightened Def Con from 0.000292234 +++++++++++++++++++to 0.000292235
Heightened Def Con from 0.000292235 +++++++++++++++++++to 0.000292236
Heightened Def Con from 0.000292236 ++++++++++++++++++++to 0.000292239
Heightened Def Con from 0.000293235 +++++++++++++++++++to 0.000293236
Heightened Def Con from 0.000293236 +++++++++++++++++++to 0.000293237
Heightened Def Con from 0.000293237 +++++++++++++++++++to 0.000293237
Heightened Def Con from 0.000293267 ++++++++++++++++++++to 0.000293269
Heightened Def Con from 0.000295265 ++++++++++++++++++++to 0.000295267
Heightened Def Con from 0.00029724 ++++++++++++++++++to 0.000297242
Heightened Def Con from 0.000297242 +++++++++++++++to 0.000297242
Heightened Def Con from 0.00029826 ++++++++++++++++++++to 0.000298261
Heightened Def Con from 0.000298262 to 0.000298262
Heightened Def Con from 0.000298262 to 0.000298262
Heightened Def Con from 0.000299246 +++++++++++++++++to 0.000299247
Heightened Def Con from 0.000299247 to 0.000299247
Heightened Def Con from 0.000387722 to 0.000387722
Heightened Def Con from 0.000414743 to 0.000414743
Heightened Def Con from 0.000591236 to 0.000591236
Heightened Def Con from 0.00061778 +++++++++++++++to 0.00061778
Heightened Def Con from 0.000618719 ++++++++++++++++++++to 0.00061872
Heightened Def Con from 0.00061872 ++++++++++++++++++++to 0.000618724
Heightened Def Con from 0.000619734 to 0.000619734
Heightened Def Con from 0.000620774 +to 0.000620774
Heightened Def Con from 0.000620774 to 0.000620774
Heightened Def Con from 0.000620774 to 0.000620774
Heightened Def Con from 0.000620774 to 0.000620774
Heightened Def Con from 0.000620774 to 0.000620774
Heightened Def Con from 0.00062078 ++++++++++++++++++++to 0.000620781
Heightened Def Con from 0.000620781 to 0.000620781
Heightened Def Con from 0.000621719 ++++++++++++++++++++to 0.00062172
Heightened Def Con from 0.00062172 ++++++++++++++++++++to 0.000621724
Heightened Def Con from 0.000622734 +++++++++++++++++++to 0.000622735
Heightened Def Con from 0.000622735 +++++++++++++++++++to 0.000622736
Heightened Def Con from 0.000622736 ++++++++++++++++++++to 0.000622737
Heightened Def Con from 0.000622737 +++++++++++++++++to 0.000622737
Heightened Def Con from 0.000622737 to 0.000622737
Heightened Def Con from 0.000622737 ++++++++++++to 0.000622737
Heightened Def Con from 0.000623725 to 0.000623725
Heightened Def Con from 0.000623725 to 0.000623725
Heightened Def Con from 0.000624719 ++++++++++++++++++++to 0.00062472
Heightened Def Con from 0.00062472 ++++++++++++++++++++to 0.000624724
Heightened Def Con from 0.000629725 +++++++++++++++++++to 0.000629727
Heightened Def Con from 0.00062978 ++++++++++++++++++++to 0.000629781
Heightened Def Con from 0.00063072 ++++++++++++++++++++to 0.000630721
Heightened Def Con from 0.000630721 ++++++++++++++++++++to 0.000630725
Heightened Def Con from 0.000631733 +++++++++++++++++++to 0.000631735
Heightened Def Con from 0.000631735 +++++++++++++++++++to 0.000631735
Heightened Def Con from 0.000631769 ++++++++++++++++++++to 0.000631771
Heightened Def Con from 0.000635725 +to 0.000635725
Heightened Def Con from 0.000635725 +to 0.000635725
Heightened Def Con from 0.00063672 to 0.00063672
Heightened Def Con from 0.000636768 to 0.000636768
Heightened Def Con from 0.000636768 +to 0.000636768
Heightened Def Con from 0.000636768 to 0.000636768
Heightened Def Con from 0.000636768 ++++to 0.000636768
Heightened Def Con from 0.000636768 to 0.000636768
Heightened Def Con from 0.000639721 ++++++++++++++++++++to 0.000639722
Heightened Def Con from 0.000639722 ++++++++++++++++++++to 0.000639726
Heightened Def Con from 0.000640614 to 0.000640614
Heightened Def Con from 0.000640733 to 0.000640733
Heightened Def Con from 0.000640733 to 0.000640733
Heightened Def Con from 0.000641726 +++++++++++++++++++to 0.000641731
Heightened Def Con from 0.000643724 to 0.000643724
Heightened Def Con from 0.000643724 to 0.000643724
Heightened Def Con from 0.000645721 +++++++++++++++to 0.000645721
Heightened Def Con from 0.000645779 to 0.000645779
Heightened Def Con from 0.000645779 to 0.000645779
Heightened Def Con from 0.000645779 to 0.000645779
Heightened Def Con from 0.000645779 to 0.000645779
Heightened Def Con from 0.000650773 to 0.000650773
Heightened Def Con from 0.000652772 ++++++++++++++++++++to 0.000652777
Heightened Def Con from 0.000654723 +to 0.000654723
Heightened Def Con from 0.000654723 +to 0.000654723
Heightened Def Con from 0.000654723 +to 0.000654723
Heightened Def Con from 0.000654723 +++++++++++++++to 0.000654723
Heightened Def Con from 0.000655727 +to 0.000655727
Heightened Def Con from 0.000655727 +to 0.000655727
Heightened Def Con from 0.000656722 to 0.000656722
Heightened Def Con from 0.000658725 to 0.000658725
Heightened Def Con from 0.00066073 +++++++++++++++++++to 0.000660731
Heightened Def Con from 0.000660731 ++++++++++++++++++to 0.000660731
Heightened Def Con from 0.000660773 ++++++++++++++to 0.000660773
Heightened Def Con from 0.000661724 ++++++++++++++++++++to 0.000661726
Heightened Def Con from 0.000661726 ++++++++++++++++++++to 0.00066173
Heightened Def Con from 0.000663725 ++++++++++++++++++++to 0.000663726
Heightened Def Con from 0.000663726 ++++++++++++++++++++to 0.00066373
Heightened Def Con from 0.000663772 to 0.000663772
Heightened Def Con from 0.000663772 to 0.000663772
Heightened Def Con from 0.000663772 to 0.000663772
Heightened Def Con from 0.000663772 to 0.000663772
Heightened Def Con from 0.000663772 to 0.000663772
Heightened Def Con from 0.000663772 ++++++++to 0.000663772
Heightened Def Con from 0.000663772 to 0.000663772
Heightened Def Con from 0.000663781 ++++++++++++++++++++to 0.000663782
Heightened Def Con from 0.000664204 to 0.000664204
Heightened Def Con from 0.000665779 ++++++++++++++++++++to 0.000665781
Heightened Def Con from 0.00066678 to 0.00066678
Heightened Def Con from 0.000667204 to 0.000667204
Heightened Def Con from 0.000667204 to 0.000667204
Heightened Def Con from 0.000667204 to 0.000667204
Heightened Def Con from 0.000667772 ++++++++++++++++++++to 0.000667777
Heightened Def Con from 0.000669771 +to 0.000669771
Heightened Def Con from 0.000669771 to 0.000669771
Heightened Def Con from 0.000669771 to 0.000669771
Heightened Def Con from 0.000669771 to 0.000669771
Heightened Def Con from 0.000669771 to 0.000669771
Heightened Def Con from 0.000669771 ++to 0.000669771
Heightened Def Con from 0.000669771 +++to 0.000669771
Heightened Def Con from 0.000669771 to 0.000669771
Heightened Def Con from 0.000670777 ++++++++++++++++++++to 0.000670779
Heightened Def Con from 0.00067273 +++++++++++++++++++to 0.000672731
Heightened Def Con from 0.000672731 +++++++++++++++++to 0.000672731
Heightened Def Con from 0.000672731 to 0.000672731
Heightened Def Con from 0.000672731 to 0.000672731
Heightened Def Con from 0.000672731 ++++++++++++++++++++to 0.000672734
Heightened Def Con from 0.00067478 ++++++++++++++++++++to 0.000674781
Heightened Def Con from 0.000675777 ++++++++++++++++++++to 0.000675782
Heightened Def Con from 0.000675782 to 0.000675782
Heightened Def Con from 0.000675782 to 0.000675782
Heightened Def Con from 0.000678725 to 0.000678725
Heightened Def Con from 0.000678725 to 0.000678725
Heightened Def Con from 0.000678725 to 0.000678725
Heightened Def Con from 0.000678725 to 0.000678725
Heightened Def Con from 0.00067878 ++++++++++++++++++++to 0.000678781
Heightened Def Con from 0.000679725 +++++++++++++++to 0.000679725
Heightened Def Con from 0.000679725 +++++++++++++++to 0.000679725
Heightened Def Con from 0.000679725 +++++++++++++++to 0.000679725
Heightened Def Con from 0.00068178 +++to 0.00068178
Heightened Def Con from 0.00068178 +++to 0.00068178
Heightened Def Con from 0.000682201 to 0.000682201
Heightened Def Con from 0.000683725 +++++++++++++++to 0.000683725
Heightened Def Con from 0.000684725 +++++++++++++++to 0.000684726
Heightened Def Con from 0.000684726 +++++++++++++++to 0.000684726
Heightened Def Con from 0.000686726 +++++to 0.000686726
Heightened Def Con from 0.000686726 +++to 0.000686726
Heightened Def Con from 0.000686779 ++++++++++++++++++++to 0.000686784
Heightened Def Con from 0.00068778 to 0.00068778
Heightened Def Con from 0.00068778 ++++++++++++++++++++to 0.000687781
Heightened Def Con from 0.000688728 +to 0.000688728
Heightened Def Con from 0.000688728 +to 0.000688728
Heightened Def Con from 0.000688728 +to 0.000688728
Heightened Def Con from 0.000688728 +to 0.000688728
Heightened Def Con from 0.000688728 +to 0.000688728
Heightened Def Con from 0.000688728 +to 0.000688728
Heightened Def Con from 0.000689724 +++++to 0.000689724
Heightened Def Con from 0.00068978 to 0.00068978
Heightened Def Con from 0.00069378 to 0.00069378
Heightened Def Con from 0.000694728 +++++++++++++++++++to 0.000694729
Heightened Def Con from 0.000694729 ++++++++++++++++++to 0.000694729
Heightened Def Con from 0.000694729 ++++++++++++++++to 0.000694729
Heightened Def Con from 0.000694729 to 0.000694729
Heightened Def Con from 0.000694729 ++++++++++++to 0.000694729
Heightened Def Con from 0.000694729 ++++++++++++++++++++to 0.000694734
Heightened Def Con from 0.000695725 +++++++++++++++to 0.000695725
Heightened Def Con from 0.000696728 +++++++++++++++++++to 0.000696729
Heightened Def Con from 0.000696729 ++++++++++++++++++to 0.000696729
Heightened Def Con from 0.000696729 ++++++++++++++++to 0.000696729
Heightened Def Con from 0.000696729 to 0.000696729
Heightened Def Con from 0.000696729 to 0.000696729
Heightened Def Con from 0.000696729 ++++++++++++++++++++to 0.000696734
Heightened Def Con from 0.000702774 to 0.000702774
Heightened Def Con from 0.000703725 +++++++++++++++to 0.000703726
Heightened Def Con from 0.000704772 to 0.000704772
Heightened Def Con from 0.000704772 to 0.000704772
Heightened Def Con from 0.000704772 +++to 0.000704772
Heightened Def Con from 0.000704772 to 0.000704772
Heightened Def Con from 0.000704772 +++++++to 0.000704772
Heightened Def Con from 0.000704772 to 0.000704772
Heightened Def Con from 0.000705771 to 0.000705771
Heightened Def Con from 0.000705771 to 0.000705771
Heightened Def Con from 0.00070778 ++++++++++++++++++++to 0.000707781
Heightened Def Con from 0.000709725 to 0.000709725
Heightened Def Con from 0.000709725 to 0.000709725
Heightened Def Con from 0.00070978 to 0.00070978
Heightened Def Con from 0.000712777 ++++++++++++++++++++to 0.000712779
Heightened Def Con from 0.000713725 ++++++++++++++++++++to 0.000713726
Heightened Def Con from 0.000713726 ++++++++++++++++++++to 0.00071373
Heightened Def Con from 0.000714728 +++++++++++++++++++to 0.000714729
Heightened Def Con from 0.000714729 ++++++++++++++++++to 0.000714729
Heightened Def Con from 0.000714729 ++++++++++++++++to 0.000714729
Heightened Def Con from 0.000714729 ++to 0.000714729
Heightened Def Con from 0.000714729 +to 0.000714729
Heightened Def Con from 0.000714729 +++to 0.000714729
Heightened Def Con from 0.000714729 +to 0.000714729
Heightened Def Con from 0.000714729 +++to 0.000714729
Heightened Def Con from 0.000714729 +++to 0.000714729
Heightened Def Con from 0.000714729 +++to 0.000714729
Heightened Def Con from 0.000714729 to 0.000714729
Heightened Def Con from 0.000714729 ++++++++++++++++++++to 0.000714734
Heightened Def Con from 0.000715726 ++++++++++++++++++++to 0.000715727
Heightened Def Con from 0.000715727 ++++++++++++++++++++to 0.000715731
Heightened Def Con from 0.000715771 +++++++++++++to 0.000715771
Heightened Def Con from 0.000719779 to 0.000719779
Heightened Def Con from 0.000719779 to 0.000719779
Heightened Def Con from 0.000719779 to 0.000719779
Heightened Def Con from 0.000721726 to 0.000721726
Heightened Def Con from 0.000721771 to 0.000721771
Heightened Def Con from 0.000721771 to 0.000721771
Heightened Def Con from 0.000721771 to 0.000721771
Heightened Def Con from 0.000721771 to 0.000721771
Heightened Def Con from 0.000721771 to 0.000721771
Heightened Def Con from 0.000721771 to 0.000721771
Heightened Def Con from 0.000721771 to 0.000721771
Heightened Def Con from 0.000721771 to 0.000721771
Heightened Def Con from 0.000721771 to 0.000721771
Heightened Def Con from 0.000721771 to 0.000721771
Heightened Def Con from 0.000721771 to 0.000721771
Heightened Def Con from 0.000721771 to 0.000721771
Heightened Def Con from 0.000721771 to 0.000721771
Heightened Def Con from 0.000721771 +to 0.000721771
Heightened Def Con from 0.000721771 to 0.000721771
Heightened Def Con from 0.000721771 ++to 0.000721771
Heightened Def Con from 0.000721771 +++to 0.000721771
Heightened Def Con from 0.000721771 ++++to 0.000721771
Heightened Def Con from 0.000721771 to 0.000721771
Heightened Def Con from 0.000721771 to 0.000721771
Heightened Def Con from 0.000721771 to 0.000721771
Heightened Def Con from 0.000721771 to 0.000721771
Heightened Def Con from 0.000721771 +++++++++++++to 0.000721771
Heightened Def Con from 0.000721779 ++++++++++++to 0.000721779
Heightened Def Con from 0.000726777 ++++++++++++++++to 0.000726777
Heightened Def Con from 0.000727779 ++++++++++++++++++to 0.000727779
Heightened Def Con from 0.000728727 +++++++++++++++to 0.000728728
Heightened Def Con from 0.000728728 +++++++++++++++to 0.000728728
Heightened Def Con from 0.000730777 +to 0.000730777
Heightened Def Con from 0.000730777 +to 0.000730777
Heightened Def Con from 0.000730777 +to 0.000730777
Heightened Def Con from 0.000730777 +to 0.000730777
Heightened Def Con from 0.000731779 to 0.000731779
Heightened Def Con from 0.000732777 +to 0.000732777
Heightened Def Con from 0.000732777 +to 0.000732777
Heightened Def Con from 0.000733726 ++++++++++++++++++++to 0.000733727
Heightened Def Con from 0.000733727 ++++++++++++++++++++to 0.000733731
Heightened Def Con from 0.000735771 +to 0.000735771
Heightened Def Con from 0.000735771 to 0.000735771
Heightened Def Con from 0.000735771 to 0.000735771
Heightened Def Con from 0.000735771 ++to 0.000735771
Heightened Def Con from 0.000735771 +to 0.000735771
Heightened Def Con from 0.000735771 ++++++to 0.000735771
Heightened Def Con from 0.000735771 to 0.000735771
Heightened Def Con from 0.000736778 ++++++++++++++++++++to 0.000736779
Heightened Def Con from 0.000737771 to 0.000737771
Heightened Def Con from 0.000737771 to 0.000737771
Heightened Def Con from 0.000737771 to 0.000737771
Heightened Def Con from 0.000737771 to 0.000737771
Heightened Def Con from 0.000737771 to 0.000737771
Heightened Def Con from 0.000737771 to 0.000737771
Heightened Def Con from 0.000737771 +to 0.000737771
Heightened Def Con from 0.000737771 to 0.000737771
Heightened Def Con from 0.000737771 ++to 0.000737771
Heightened Def Con from 0.000737771 ++to 0.000737771
Heightened Def Con from 0.000737771 +++to 0.000737771
Heightened Def Con from 0.000737771 to 0.000737771
Heightened Def Con from 0.000737771 ++to 0.000737771
Heightened Def Con from 0.000737771 +to 0.000737771
Heightened Def Con from 0.000737771 +to 0.000737771
Heightened Def Con from 0.000737771 +++to 0.000737771
Heightened Def Con from 0.000737771 ++to 0.000737771
Heightened Def Con from 0.000737771 +++to 0.000737771
Heightened Def Con from 0.000737771 ++to 0.000737771
Heightened Def Con from 0.000737771 to 0.000737771
Heightened Def Con from 0.000737771 to 0.000737771
Heightened Def Con from 0.000737771 +++++++to 0.000737771
Heightened Def Con from 0.000737771 to 0.000737771
Heightened Def Con from 0.000739726 +++++++++++++++to 0.000739727
Heightened Def Con from 0.000740727 to 0.000740727
Heightened Def Con from 0.000741727 to 0.000741727
Heightened Def Con from 0.000742778 +to 0.000742778
Heightened Def Con from 0.000743778 ++++++++++++++++++++to 0.00074378
Heightened Def Con from 0.000744778 ++++++++++++++++++++to 0.000744779
Heightened Def Con from 0.000745727 +++++++++++++++to 0.000745727
Heightened Def Con from 0.000745727 +++++++++++++++to 0.000745727
Heightened Def Con from 0.000745778 +++++++++++++++++to 0.000745779
Heightened Def Con from 0.000747772 to 0.000747772
Heightened Def Con from 0.000747778 to 0.000747778
Heightened Def Con from 0.000752727 +to 0.000752727
Heightened Def Con from 0.000753727 to 0.000753727
Heightened Def Con from 0.000753772 to 0.000753772
Heightened Def Con from 0.000753772 to 0.000753772
Heightened Def Con from 0.000753772 to 0.000753772
Heightened Def Con from 0.000753772 to 0.000753772
Heightened Def Con from 0.000753772 to 0.000753772
Heightened Def Con from 0.000753772 to 0.000753772
Heightened Def Con from 0.000753772 +to 0.000753772
Heightened Def Con from 0.000753772 ++to 0.000753772
Heightened Def Con from 0.000753772 +to 0.000753772
Heightened Def Con from 0.000753772 to 0.000753772
Heightened Def Con from 0.000753772 to 0.000753772
Heightened Def Con from 0.000753772 +to 0.000753772
Heightened Def Con from 0.000753772 to 0.000753772
Heightened Def Con from 0.000753772 to 0.000753772
Heightened Def Con from 0.000753772 +to 0.000753772
Heightened Def Con from 0.000753772 to 0.000753772
Heightened Def Con from 0.000753772 to 0.000753772
Heightened Def Con from 0.000753772 to 0.000753772
Heightened Def Con from 0.000753772 to 0.000753772
Heightened Def Con from 0.000753772 to 0.000753772
Heightened Def Con from 0.000753772 to 0.000753772
Heightened Def Con from 0.000753772 to 0.000753772
Heightened Def Con from 0.000753772 to 0.000753772
Heightened Def Con from 0.000753772 to 0.000753772
Heightened Def Con from 0.000753772 to 0.000753772
Heightened Def Con from 0.000753772 to 0.000753772
Heightened Def Con from 0.000753772 +to 0.000753772
Heightened Def Con from 0.000753772 to 0.000753772
Heightened Def Con from 0.000753772 to 0.000753772
Heightened Def Con from 0.000753772 to 0.000753772
Heightened Def Con from 0.000753772 to 0.000753772
Heightened Def Con from 0.000753772 to 0.000753772
Heightened Def Con from 0.000753772 to 0.000753772
Heightened Def Con from 0.000753772 +to 0.000753772
Heightened Def Con from 0.000753772 +to 0.000753772
Heightened Def Con from 0.000753772 to 0.000753772
Heightened Def Con from 0.000753772 to 0.000753772
Heightened Def Con from 0.000753772 to 0.000753772
Heightened Def Con from 0.000753772 to 0.000753772
Heightened Def Con from 0.000753772 to 0.000753772
Heightened Def Con from 0.000753772 to 0.000753772
Heightened Def Con from 0.000753772 to 0.000753772
Heightened Def Con from 0.000753772 to 0.000753772
Heightened Def Con from 0.000753772 to 0.000753772
Heightened Def Con from 0.000753772 to 0.000753772
Heightened Def Con from 0.000753772 +to 0.000753772
Heightened Def Con from 0.000753772 +to 0.000753772
Heightened Def Con from 0.000753772 to 0.000753772
Heightened Def Con from 0.000753772 to 0.000753772
Heightened Def Con from 0.000753772 to 0.000753772
Heightened Def Con from 0.000753772 to 0.000753772
Heightened Def Con from 0.000753772 to 0.000753772
Heightened Def Con from 0.000753772 to 0.000753772
Heightened Def Con from 0.000753772 to 0.000753772
Heightened Def Con from 0.000753772 to 0.000753772
Heightened Def Con from 0.000753772 to 0.000753772
Heightened Def Con from 0.000753772 to 0.000753772
Heightened Def Con from 0.000753772 to 0.000753772
Heightened Def Con from 0.000753772 to 0.000753772
Heightened Def Con from 0.000753772 to 0.000753772
Heightened Def Con from 0.000753772 to 0.000753772
Heightened Def Con from 0.000753772 to 0.000753772
Heightened Def Con from 0.000753772 ++to 0.000753772
Heightened Def Con from 0.000753772 +to 0.000753772
Heightened Def Con from 0.000753772 +to 0.000753772
Heightened Def Con from 0.000753772 ++++to 0.000753772
Heightened Def Con from 0.000753772 +to 0.000753772
Heightened Def Con from 0.000753772 to 0.000753772
Heightened Def Con from 0.000753772 to 0.000753772
Heightened Def Con from 0.000753772 ++to 0.000753772
Heightened Def Con from 0.000753772 to 0.000753772
Heightened Def Con from 0.000753772 to 0.000753772
Heightened Def Con from 0.000753772 ++to 0.000753772
Heightened Def Con from 0.000753772 to 0.000753772
Heightened Def Con from 0.000753772 ++to 0.000753772
Heightened Def Con from 0.000753772 to 0.000753772
Heightened Def Con from 0.000753772 to 0.000753772
Heightened Def Con from 0.000753772 to 0.000753772
Heightened Def Con from 0.000753772 +to 0.000753772
Heightened Def Con from 0.000753772 to 0.000753772
Heightened Def Con from 0.000753772 to 0.000753772
Heightened Def Con from 0.000753772 to 0.000753772
Heightened Def Con from 0.000753772 to 0.000753772
Heightened Def Con from 0.000753772 +to 0.000753772
Heightened Def Con from 0.000753772 to 0.000753772
Heightened Def Con from 0.000753772 to 0.000753772
Heightened Def Con from 0.000753772 to 0.000753772
Heightened Def Con from 0.000753772 to 0.000753772
Heightened Def Con from 0.000753772 to 0.000753772
Heightened Def Con from 0.000753772 to 0.000753772
Heightened Def Con from 0.000753772 ++++to 0.000753772
Heightened Def Con from 0.000753772 to 0.000753772
Heightened Def Con from 0.000753772 to 0.000753772
Heightened Def Con from 0.000753772 to 0.000753772
Heightened Def Con from 0.000753772 to 0.000753772
Heightened Def Con from 0.000753772 to 0.000753772
Heightened Def Con from 0.000753772 to 0.000753772
Heightened Def Con from 0.000753772 +++++++++++++to 0.000753772
Heightened Def Con from 0.000753772 to 0.000753772
Heightened Def Con from 0.000755778 ++++++++++++++++++++to 0.000755779
Heightened Def Con from 0.000758727 +++++++++++++++to 0.000758727
Heightened Def Con from 0.000758727 +++++++++++++++to 0.000758727
Heightened Def Con from 0.000759727 +++++++++++++++to 0.000759727
Heightened Def Con from 0.000759727 +++++++++++++++to 0.000759727
Heightened Def Con from 0.000759727 +++++++++++++++to 0.000759727
Heightened Def Con from 0.000760777 ++++++++++++++++++++to 0.000760779
Heightened Def Con from 0.000760779 to 0.000760779
Heightened Def Con from 0.000762777 to 0.000762777
Heightened Def Con from 0.000764771 to 0.000764771
Heightened Def Con from 0.000764771 to 0.000764771
Heightened Def Con from 0.000764771 to 0.000764771
Heightened Def Con from 0.000764771 to 0.000764771
Heightened Def Con from 0.000764771 +++++++++++++to 0.000764771
Heightened Def Con from 0.000764771 to 0.000764771
Heightened Def Con from 0.000764777 to 0.000764777
Heightened Def Con from 0.000765727 +++++++++++++++to 0.000765728
Heightened Def Con from 0.000765728 +++++++++++++++to 0.000765728
Heightened Def Con from 0.000765728 +++++++++++++++to 0.000765728
Heightened Def Con from 0.000766727 +to 0.000766727
Heightened Def Con from 0.000766777 ++++++++++++++++++++to 0.000766778
Heightened Def Con from 0.000768777 ++++++++++++++++++++to 0.000768778
Heightened Def Con from 0.000768778 to 0.000768778
Heightened Def Con from 0.000768778 +to 0.000768778
Heightened Def Con from 0.000768778 to 0.000768778
Heightened Def Con from 0.000769728 +to 0.000769728
Heightened Def Con from 0.000769771 to 0.000769771
Heightened Def Con from 0.000769771 to 0.000769771
Heightened Def Con from 0.000769771 to 0.000769771
Heightened Def Con from 0.000769771 to 0.000769771
Heightened Def Con from 0.000769771 to 0.000769771
Heightened Def Con from 0.000769771 +to 0.000769771
Heightened Def Con from 0.000769771 to 0.000769771
Heightened Def Con from 0.000769771 to 0.000769771
Heightened Def Con from 0.000769771 to 0.000769771
Heightened Def Con from 0.000769771 to 0.000769771
Heightened Def Con from 0.000769771 +to 0.000769771
Heightened Def Con from 0.000769771 to 0.000769771
Heightened Def Con from 0.000769771 to 0.000769771
Heightened Def Con from 0.000769771 +to 0.000769771
Heightened Def Con from 0.000769771 to 0.000769771
Heightened Def Con from 0.000769771 to 0.000769771
Heightened Def Con from 0.000769771 +to 0.000769771
Heightened Def Con from 0.000769771 +to 0.000769771
Heightened Def Con from 0.000769771 to 0.000769771
Heightened Def Con from 0.000769771 to 0.000769771
Heightened Def Con from 0.000769771 to 0.000769771
Heightened Def Con from 0.000769771 to 0.000769771
Heightened Def Con from 0.000769771 to 0.000769771
Heightened Def Con from 0.000769771 ++to 0.000769771
Heightened Def Con from 0.000769771 to 0.000769771
Heightened Def Con from 0.000769771 to 0.000769771
Heightened Def Con from 0.000769771 to 0.000769771
Heightened Def Con from 0.000769771 +to 0.000769771
Heightened Def Con from 0.000769771 +to 0.000769771
Heightened Def Con from 0.000769771 to 0.000769771
Heightened Def Con from 0.000769771 to 0.000769771
Heightened Def Con from 0.000769771 to 0.000769771
Heightened Def Con from 0.000769771 to 0.000769771
Heightened Def Con from 0.000769771 ++++++to 0.000769771
Heightened Def Con from 0.000769771 to 0.000769771
Heightened Def Con from 0.000769777 to 0.000769777
Heightened Def Con from 0.000769777 to 0.000769777
Heightened Def Con from 0.000771776 to 0.000771776
Heightened Def Con from 0.000771776 to 0.000771776
Heightened Def Con from 0.000771776 to 0.000771776
Heightened Def Con from 0.000771776 to 0.000771776
Heightened Def Con from 0.000771776 to 0.000771776
Heightened Def Con from 0.000771776 to 0.000771776
Heightened Def Con from 0.000772728 +++++++++++++++to 0.000772728
Heightened Def Con from 0.000772771 to 0.000772771
Heightened Def Con from 0.000772771 to 0.000772771
Heightened Def Con from 0.000772771 to 0.000772771
Heightened Def Con from 0.000772771 to 0.000772771
Heightened Def Con from 0.000772771 to 0.000772771
Heightened Def Con from 0.000772771 to 0.000772771
Heightened Def Con from 0.000772771 to 0.000772771
Heightened Def Con from 0.000772771 to 0.000772771
Heightened Def Con from 0.000772771 to 0.000772771
Heightened Def Con from 0.000772771 to 0.000772771
Heightened Def Con from 0.000772771 to 0.000772771
Heightened Def Con from 0.000772771 to 0.000772771
Heightened Def Con from 0.000772771 to 0.000772771
Heightened Def Con from 0.000772771 to 0.000772771
Heightened Def Con from 0.000772771 to 0.000772771
Heightened Def Con from 0.000772771 ++to 0.000772771
Heightened Def Con from 0.000772771 +to 0.000772771
Heightened Def Con from 0.000772771 +to 0.000772771
Heightened Def Con from 0.000772771 +++++++++++++to 0.000772771
Heightened Def Con from 0.000775728 +to 0.000775728
Heightened Def Con from 0.000775728 to 0.000775728
Heightened Def Con from 0.000775775 ++++++++++++++++++++to 0.000775777
Heightened Def Con from 0.000776775 +++++++++to 0.000776775
Heightened Def Con from 0.000777197 +to 0.000777197
Heightened Def Con from 0.000777197 to 0.000777197
Heightened Def Con from 0.000777197 to 0.000777197
Heightened Def Con from 0.000777197 to 0.000777197
Heightened Def Con from 0.000779729 to 0.000779729
Heightened Def Con from 0.000784772 ++++++++++++++to 0.000784772
Heightened Def Con from 0.000784772 ++++++++++++++to 0.000784772
Heightened Def Con from 0.000784772 ++++++++++++++to 0.000784772
Heightened Def Con from 0.000787622 to 0.000787622
Heightened Def Con from 0.000787768 to 0.000787768
Heightened Def Con from 0.000787768 to 0.000787768
Heightened Def Con from 0.000787768 to 0.000787768
Heightened Def Con from 0.000787768 to 0.000787768
Heightened Def Con from 0.000787768 to 0.000787768
Heightened Def Con from 0.000787768 to 0.000787768
Heightened Def Con from 0.000787768 to 0.000787768
Heightened Def Con from 0.000787768 to 0.000787768
Heightened Def Con from 0.000787768 to 0.000787768
Heightened Def Con from 0.000787768 to 0.000787768
Heightened Def Con from 0.000787768 to 0.000787768
Heightened Def Con from 0.000787768 to 0.000787768
Heightened Def Con from 0.000787768 to 0.000787768
Heightened Def Con from 0.000787768 to 0.000787768
Heightened Def Con from 0.000787768 to 0.000787768
Heightened Def Con from 0.000787768 to 0.000787768
Heightened Def Con from 0.000787768 to 0.000787768
Heightened Def Con from 0.000787768 to 0.000787768
Heightened Def Con from 0.000787768 to 0.000787768
Heightened Def Con from 0.000787768 to 0.000787768
Heightened Def Con from 0.000787768 to 0.000787768
Heightened Def Con from 0.000787768 to 0.000787768
Heightened Def Con from 0.000787768 to 0.000787768
Heightened Def Con from 0.000787768 to 0.000787768
Heightened Def Con from 0.000787768 to 0.000787768
Heightened Def Con from 0.000787768 to 0.000787768
Heightened Def Con from 0.000787768 to 0.000787768
Heightened Def Con from 0.000787768 +to 0.000787768
Heightened Def Con from 0.000787768 to 0.000787768
Heightened Def Con from 0.000787768 to 0.000787768
Heightened Def Con from 0.000787768 to 0.000787768
Heightened Def Con from 0.000787768 to 0.000787768
Heightened Def Con from 0.000787768 to 0.000787768
Heightened Def Con from 0.000787768 to 0.000787768
Heightened Def Con from 0.000787768 to 0.000787768
Heightened Def Con from 0.000787768 to 0.000787768
Heightened Def Con from 0.000787768 to 0.000787768
Heightened Def Con from 0.000787768 to 0.000787768
Heightened Def Con from 0.000787768 to 0.000787768
Heightened Def Con from 0.000787768 ++to 0.000787768
Heightened Def Con from 0.000787768 +to 0.000787768
Heightened Def Con from 0.000787768 to 0.000787768
Heightened Def Con from 0.000787768 to 0.000787768
Heightened Def Con from 0.000787768 to 0.000787768
Heightened Def Con from 0.000787768 to 0.000787768
Heightened Def Con from 0.000787768 to 0.000787768
Heightened Def Con from 0.000787768 ++to 0.000787768
Heightened Def Con from 0.000787768 ++to 0.000787768
Heightened Def Con from 0.000787768 to 0.000787768
Heightened Def Con from 0.000787768 to 0.000787768
Heightened Def Con from 0.000787768 to 0.000787768
Heightened Def Con from 0.000787768 to 0.000787768
Heightened Def Con from 0.000787768 to 0.000787768
Heightened Def Con from 0.000787768 to 0.000787768
Heightened Def Con from 0.000787768 to 0.000787768
Heightened Def Con from 0.000787768 to 0.000787768
Heightened Def Con from 0.000787768 to 0.000787768
Heightened Def Con from 0.000787768 to 0.000787768
Heightened Def Con from 0.000787768 to 0.000787768
Heightened Def Con from 0.000787768 to 0.000787768
Heightened Def Con from 0.000787768 to 0.000787768
Heightened Def Con from 0.000787768 to 0.000787768
Heightened Def Con from 0.000787768 to 0.000787768
Heightened Def Con from 0.000787768 +to 0.000787768
Heightened Def Con from 0.000787768 +to 0.000787768
Heightened Def Con from 0.000787768 to 0.000787768
Heightened Def Con from 0.000787768 to 0.000787768
Heightened Def Con from 0.000787768 to 0.000787768
Heightened Def Con from 0.000787768 to 0.000787768
Heightened Def Con from 0.000787768 to 0.000787768
Heightened Def Con from 0.000787768 to 0.000787768
Heightened Def Con from 0.000787768 to 0.000787768
Heightened Def Con from 0.000787768 to 0.000787768
Heightened Def Con from 0.000787768 to 0.000787768
Heightened Def Con from 0.000787768 to 0.000787768
Heightened Def Con from 0.000787768 to 0.000787768
Heightened Def Con from 0.000787768 to 0.000787768
Heightened Def Con from 0.000787768 to 0.000787768
Heightened Def Con from 0.000787768 to 0.000787768
Heightened Def Con from 0.000787768 to 0.000787768
Heightened Def Con from 0.000787768 to 0.000787768
Heightened Def Con from 0.000787768 to 0.000787768
Heightened Def Con from 0.000787768 to 0.000787768
Heightened Def Con from 0.000787768 to 0.000787768
Heightened Def Con from 0.000787768 to 0.000787768
Heightened Def Con from 0.000787768 to 0.000787768
Heightened Def Con from 0.000787768 to 0.000787768
Heightened Def Con from 0.000787768 to 0.000787768
Heightened Def Con from 0.000787768 +++to 0.000787768
Heightened Def Con from 0.000787768 ++++++to 0.000787768
Heightened Def Con from 0.000787768 to 0.000787768
Heightened Def Con from 0.000788767 to 0.000788767
Heightened Def Con from 0.000788767 to 0.000788767
Heightened Def Con from 0.000788767 to 0.000788767
Heightened Def Con from 0.000788767 to 0.000788767
Heightened Def Con from 0.000788767 to 0.000788767
Heightened Def Con from 0.000788767 to 0.000788767
Heightened Def Con from 0.000788767 +to 0.000788767
Heightened Def Con from 0.000788767 to 0.000788767
Heightened Def Con from 0.000788767 to 0.000788767
Heightened Def Con from 0.000789732 +++++++++++++++++++to 0.000789733
Heightened Def Con from 0.000789733 +++++++++++++++++++to 0.000789734
Heightened Def Con from 0.000789734 to 0.000789734
Heightened Def Con from 0.000790769 ++++++++++++to 0.000790769
Heightened Def Con from 0.000790769 ++++++++++++to 0.000790769
Heightened Def Con from 0.000791734 +++++++++++++++++++to 0.000791735
Heightened Def Con from 0.000791735 +++++++++++++++++++to 0.000791735
Heightened Def Con from 0.000791769 ++++++++++++++++++to 0.000791769
Heightened Def Con from 0.000792735 to 0.000792735
Heightened Def Con from 0.000797741 ++++++++++++++++++to 0.000797743
Heightened Def Con from 0.000797743 ++++++++++++++++++to 0.000797743
Heightened Def Con from 0.000797762 ++++++++++++++++++++to 0.000797763
Heightened Def Con from 0.000797763 ++++++++++++++++++++to 0.000797764
Heightened Def Con from 0.000797764 ++++++++++++++++++++to 0.000797764
Heightened Def Con from 0.000797764 +to 0.000797764
Heightened Def Con from 0.000797764 to 0.000797764
Heightened Def Con from 0.000797764 ++++++++++++++++++++to 0.000797765
Heightened Def Con from 0.000798759 ++++++++++++++++++++to 0.00079876
Heightened Def Con from 0.00079876 to 0.00079876
Heightened Def Con from 0.00079876 +++to 0.00079876
Heightened Def Con from 0.000798761 ++++++++++++++to 0.000798762
Heightened Def Con from 0.000798762 ++++++++++++++++++++to 0.000798763
Heightened Def Con from 0.000799748 ++++++++++++++++to 0.00079975
Heightened Def Con from 0.00079975 +++++++++++++++++to 0.000799751
Heightened Def Con from 0.000799751 ++++++++++++++++++++to 0.000799751
Heightened Def Con from 0.000799752 to 0.000799752
Heightened Def Con from 0.000799752 ++++++++++++++to 0.000799753
Heightened Def Con from 0.000799754 ++++++++++++++++++++to 0.000799756
Heightened Def Con from 0.000799756 +++to 0.000799756
Heightened Def Con from 0.000799756 ++++++++++++++++++++to 0.000799757
Heightened Def Con from 0.000799759 ++++++++++++++++++++to 0.00079976
Heightened Def Con from 0.00079976 +++to 0.00079976
Heightened Def Con from 0.00079976 to 0.00079976
Heightened Def Con from 0.00079976 to 0.00079976
Heightened Def Con from 0.00079976 to 0.00079976
Heightened Def Con from 0.00079976 +to 0.00079976
Heightened Def Con from 0.00079976 +to 0.00079976
Heightened Def Con from 0.00079976 +to 0.00079976
Heightened Def Con from 0.00079976 +++to 0.00079976
Heightened Def Con from 0.00079976 ++++to 0.00079976
Heightened Def Con from 0.00079976 +++to 0.00079976
Heightened Def Con from 0.00079976 ++++to 0.00079976
Heightened Def Con from 0.000835204 to 0.000835204
Heightened Def Con from 0.000842206 to 0.000842206
Heightened Def Con from 0.000849207 to 0.000849207
Heightened Def Con from 0.00111723 +++++++++++++++++++to 0.00111723
Heightened Def Con from 0.00111723 ++++++++++++++++++to 0.00111723
Heightened Def Con from 0.00112022 +++++++++++++++to 0.00112022
Heightened Def Con from 0.00112027 to 0.00112027
Heightened Def Con from 0.00112028 +++++++++++++++++++to 0.00112028
Heightened Def Con from 0.00112228 ++++++++++to 0.00112228
Heightened Def Con from 0.00112328 +++++++++++++++++++to 0.00112328
Heightened Def Con from 0.00112328 +++to 0.00112328
Heightened Def Con from 0.00112328 +++++++to 0.00112328
Heightened Def Con from 0.00112328 +++++++to 0.00112328
Heightened Def Con from 0.00112328 to 0.00112328
Heightened Def Con from 0.00112423 +++++++++++++++++++to 0.00112423
Heightened Def Con from 0.00112423 +++++++++++++++++++to 0.00112424
Heightened Def Con from 0.00112427 ++++++++++++++++++++to 0.00112427
Heightened Def Con from 0.00112427 to 0.00112427
Heightened Def Con from 0.00112427 to 0.00112427
Heightened Def Con from 0.00112622 ++++++++++++++++++++to 0.00112622
Heightened Def Con from 0.00112622 ++++++++++++++++++++to 0.00112622
Heightened Def Con from 0.00112627 to 0.00112627
Heightened Def Con from 0.00112927 to 0.00112927
Heightened Def Con from 0.00113123 +++++++++++++++++++to 0.00113123
Heightened Def Con from 0.00113128 ++++++++++++++++++++to 0.00113128
Heightened Def Con from 0.00113128 to 0.00113128
Heightened Def Con from 0.00113227 to 0.00113227
Heightened Def Con from 0.00113227 to 0.00113227
Heightened Def Con from 0.00113227 to 0.00113227
Heightened Def Con from 0.00113227 to 0.00113227
Heightened Def Con from 0.00113227 +to 0.00113227
Heightened Def Con from 0.00113227 +to 0.00113227
Heightened Def Con from 0.00113227 to 0.00113227
Heightened Def Con from 0.00113227 to 0.00113227
Heightened Def Con from 0.00113227 +++++++to 0.00113227
Heightened Def Con from 0.00113227 to 0.00113227
Heightened Def Con from 0.00113428 ++++++++++++++++++++to 0.00113428
Heightened Def Con from 0.00113428 +++++to 0.00113428
Heightened Def Con from 0.00113428 to 0.00113428
Heightened Def Con from 0.00113428 to 0.00113428
Heightened Def Con from 0.00113623 to 0.00113623
Heightened Def Con from 0.00113623 to 0.00113623
Heightened Def Con from 0.00113623 to 0.00113623
Heightened Def Con from 0.00113627 +++++++++++++++++++to 0.00113627
Heightened Def Con from 0.00113627 ++++++++++++++++++to 0.00113627
Heightened Def Con from 0.00113627 ++++++++++++++++++++to 0.00113627
Heightened Def Con from 0.00113723 +++++++++++++++++++to 0.00113723
Heightened Def Con from 0.00113828 +++++++++++++++++++to 0.00113828
Heightened Def Con from 0.00113828 +++++++to 0.00113828
Heightened Def Con from 0.00113828 +++++++++to 0.00113828
Heightened Def Con from 0.00113828 ++++++to 0.00113828
Heightened Def Con from 0.00113923 to 0.00113923
Heightened Def Con from 0.00114022 to 0.00114022
Heightened Def Con from 0.00114028 ++++++++++++++++to 0.00114028
Heightened Def Con from 0.00114227 +++++++++++++++++to 0.00114227
Heightened Def Con from 0.00114323 to 0.00114323
Heightened Def Con from 0.00114323 to 0.00114323
Heightened Def Con from 0.00114323 to 0.00114323
Heightened Def Con from 0.00114328 ++++++++++++++++to 0.00114328
Heightened Def Con from 0.00114722 ++++++++++++++++++++to 0.00114722
Heightened Def Con from 0.00114722 ++++++++++++++++++++to 0.00114723
Heightened Def Con from 0.00114923 +++++++++++++++++++to 0.00114923
Heightened Def Con from 0.00115022 ++++++++++++++++++++to 0.00115022
Heightened Def Con from 0.00115022 ++++++++++++++++++++to 0.00115023
Heightened Def Con from 0.00115127 +++++++++++++++to 0.00115127
Heightened Def Con from 0.00115423 to 0.00115423
Heightened Def Con from 0.00115423 to 0.00115423
Heightened Def Con from 0.00115427 ++++++++++++++to 0.00115427
Heightened Def Con from 0.00115471 to 0.00115471
Heightened Def Con from 0.00115528 ++++++++++++++++++++to 0.00115528
Heightened Def Con from 0.00115728 +++++++++++++++++++to 0.00115728
Heightened Def Con from 0.00115728 +++++++to 0.00115728
Heightened Def Con from 0.00115923 +++++++++++++++to 0.00115923
Heightened Def Con from 0.00116222 to 0.00116222
Heightened Def Con from 0.00116222 ++++++++++++++++++++to 0.00116223
Heightened Def Con from 0.00116223 ++++++++++++++++++++to 0.00116223
Heightened Def Con from 0.00116322 ++++++++++++++++++++to 0.00116323
Heightened Def Con from 0.00116323 ++++++++++++++++++++to 0.00116323
Heightened Def Con from 0.00116328 to 0.00116328
Heightened Def Con from 0.00116328 to 0.00116328
Heightened Def Con from 0.00116422 to 0.00116422
Heightened Def Con from 0.00116422 to 0.00116422
Heightened Def Con from 0.00116422 to 0.00116422
Heightened Def Con from 0.00116422 +++++++++++++++to 0.00116423
Heightened Def Con from 0.00116423 +++++++++++++++to 0.00116423
Heightened Def Con from 0.00116423 +++++++++++++++to 0.00116423
Heightened Def Con from 0.00116428 ++++++++++++++++++++to 0.00116428
Heightened Def Con from 0.00117022 to 0.00117022
Heightened Def Con from 0.00117027 ++++++++++to 0.00117027
Heightened Def Con from 0.00117027 to 0.00117027
Heightened Def Con from 0.00117127 ++++++++++++++to 0.00117127
Heightened Def Con from 0.00117222 to 0.00117222
Heightened Def Con from 0.00117222 to 0.00117222
Heightened Def Con from 0.00117222 to 0.00117222
Heightened Def Con from 0.00117222 to 0.00117222
Heightened Def Con from 0.00117323 +++++++++++++++++++to 0.00117323
Heightened Def Con from 0.00117323 ++++++++++++++++++to 0.00117323
Heightened Def Con from 0.00117323 +to 0.00117323
Heightened Def Con from 0.00117323 +++to 0.00117323
Heightened Def Con from 0.00117323 to 0.00117323
Heightened Def Con from 0.00117323 +to 0.00117323
Heightened Def Con from 0.00117323 to 0.00117323
Heightened Def Con from 0.00117323 to 0.00117323
Heightened Def Con from 0.00117523 +++++++++++++++to 0.00117523
Heightened Def Con from 0.00117723 +++++++++++++++++++to 0.00117723
Heightened Def Con from 0.00117723 ++++++++++++++++++to 0.00117723
Heightened Def Con from 0.00117723 to 0.00117723
Heightened Def Con from 0.00117723 to 0.00117723
Heightened Def Con from 0.00117723 to 0.00117723
Heightened Def Con from 0.00117723 to 0.00117723
Heightened Def Con from 0.00117728 ++++to 0.00117728
Heightened Def Con from 0.00117728 ++++to 0.00117728
Heightened Def Con from 0.00117728 ++++to 0.00117728
Heightened Def Con from 0.00117728 ++++to 0.00117728
Heightened Def Con from 0.00117728 ++++to 0.00117728
Heightened Def Con from 0.00117827 to 0.00117827
Heightened Def Con from 0.00117827 to 0.00117827
Heightened Def Con from 0.00117827 to 0.00117827
Heightened Def Con from 0.00117827 +to 0.00117827
Heightened Def Con from 0.00117827 +++++++++++to 0.00117827
Heightened Def Con from 0.00117827 to 0.00117827
Heightened Def Con from 0.00118123 ++++++++++++++++++++to 0.00118123
Heightened Def Con from 0.00118123 ++++++++++++++++++++to 0.00118123
Heightened Def Con from 0.00118427 to 0.00118427
Heightened Def Con from 0.00118428 to 0.00118428
Heightened Def Con from 0.00118428 to 0.00118428
Heightened Def Con from 0.00118428 to 0.00118428
Heightened Def Con from 0.00118428 to 0.00118428
Heightened Def Con from 0.00118428 to 0.00118428
Heightened Def Con from 0.00118428 to 0.00118428
Heightened Def Con from 0.00118428 to 0.00118428
Heightened Def Con from 0.00118522 to 0.00118522
Heightened Def Con from 0.00118623 +++++++++++++++to 0.00118623
Heightened Def Con from 0.00118623 +++++++++++++++to 0.00118623
Heightened Def Con from 0.00118623 +++++++++++++++to 0.00118623
Heightened Def Con from 0.00118728 to 0.00118728
Heightened Def Con from 0.00118728 to 0.00118728
Heightened Def Con from 0.00118728 to 0.00118728
Heightened Def Con from 0.00118822 to 0.00118822
Heightened Def Con from 0.00118828 ++++++++++++++++++++to 0.00118828
Heightened Def Con from 0.00118828 +++to 0.00118828
Heightened Def Con from 0.00118828 to 0.00118828
Heightened Def Con from 0.00118922 to 0.00118922
Heightened Def Con from 0.00119023 +++++++++++++++++++to 0.00119023
Heightened Def Con from 0.00119023 ++++++++++++++++++to 0.00119023
Heightened Def Con from 0.00119023 +++++to 0.00119023
Heightened Def Con from 0.00119023 to 0.00119023
Heightened Def Con from 0.00119028 ++++++++++++++++++++to 0.00119028
Heightened Def Con from 0.00119028 ++++++++to 0.00119028
Heightened Def Con from 0.00119028 to 0.00119028
Heightened Def Con from 0.00119122 ++to 0.00119122
Heightened Def Con from 0.00119122 ++to 0.00119122
Heightened Def Con from 0.00119122 to 0.00119122
Heightened Def Con from 0.00119322 to 0.00119322
Heightened Def Con from 0.00119428 ++to 0.00119428
Heightened Def Con from 0.00119522 to 0.00119522
Heightened Def Con from 0.00119528 ++++++++++++++++++to 0.00119528
Heightened Def Con from 0.00119623 to 0.00119623
Heightened Def Con from 0.00119623 to 0.00119623
Heightened Def Con from 0.00119623 to 0.00119623
Heightened Def Con from 0.00119623 to 0.00119623
Heightened Def Con from 0.00119623 to 0.00119623
Heightened Def Con from 0.0011967 to 0.0011967
Heightened Def Con from 0.00119922 to 0.00119922
Heightened Def Con from 0.00119922 to 0.00119922
Heightened Def Con from 0.00119927 to 0.00119927
Heightened Def Con from 0.00119927 to 0.00119927
Heightened Def Con from 0.00119927 ++++++++++++to 0.00119927
Heightened Def Con from 0.00119927 to 0.00119927
Heightened Def Con from 0.00120023 +to 0.00120023
Heightened Def Con from 0.00120023 +to 0.00120023
Heightened Def Con from 0.00120023 +to 0.00120023
Heightened Def Con from 0.00120023 +++++++++++++++++++to 0.00120023
Heightened Def Con from 0.00120023 ++++++++++++++++++to 0.00120023
Heightened Def Con from 0.00120023 ++++++++++++++++to 0.00120023
Heightened Def Con from 0.00120023 to 0.00120023
Heightened Def Con from 0.00120023 to 0.00120023
Heightened Def Con from 0.00120023 +++to 0.00120023
Heightened Def Con from 0.00120028 ++++++++++++++++++++to 0.00120028
Heightened Def Con from 0.00120028 to 0.00120028
Heightened Def Con from 0.00120122 to 0.00120122
Heightened Def Con from 0.00120128 ++++++++++++++++++++to 0.00120128
Heightened Def Con from 0.00120428 ++++++++++++++++++++to 0.00120428
Heightened Def Con from 0.00120428 ++++++++to 0.00120428
Heightened Def Con from 0.00120428 ++++++++++to 0.00120428
Heightened Def Con from 0.00120722 +++++++++++++++to 0.00120723
Heightened Def Con from 0.00120822 to 0.00120822
Heightened Def Con from 0.00120922 to 0.00120922
Heightened Def Con from 0.00121423 +++++++++++++++to 0.00121423
Heightened Def Con from 0.00121428 ++++++++++++++++to 0.00121428
Heightened Def Con from 0.00121623 +++++++++++++++to 0.00121623
Heightened Def Con from 0.00122128 ++++++++++++++++++to 0.00122128
Heightened Def Con from 0.00122328 ++++++++++++++++++to 0.00122328
Heightened Def Con from 0.00122523 ++++++++++++++++++++to 0.00122523
Heightened Def Con from 0.00122523 ++++++++++++++++++++to 0.00122523
Heightened Def Con from 0.00122623 +++++++++++++++to 0.00122623
Heightened Def Con from 0.00122628 ++++++++++++++++to 0.00122628
Heightened Def Con from 0.00122723 +to 0.00122723
Heightened Def Con from 0.0012277 +to 0.0012277
Heightened Def Con from 0.0012277 +++to 0.0012277
Heightened Def Con from 0.0012277 to 0.0012277
Heightened Def Con from 0.00122823 +++++++++++++++to 0.00122823
Heightened Def Con from 0.00122823 +++++++++++++++to 0.00122823
Heightened Def Con from 0.00122823 +++++++++++++++to 0.00122823
Heightened Def Con from 0.0012287 to 0.0012287
Heightened Def Con from 0.0012287 to 0.0012287
Heightened Def Con from 0.0012287 to 0.0012287
Heightened Def Con from 0.00122923 ++++++++++++++++++++to 0.00122923
Heightened Def Con from 0.00122923 ++++++++++++++++++++to 0.00122923
Heightened Def Con from 0.00122928 to 0.00122928
Heightened Def Con from 0.00122928 to 0.00122928
Heightened Def Con from 0.00123023 +++++++++++++++to 0.00123023
Heightened Def Con from 0.00123028 ++++++++++++++++++++to 0.00123028
Heightened Def Con from 0.00123228 +++++to 0.00123228
Heightened Def Con from 0.00123228 +++++to 0.00123228
Heightened Def Con from 0.00123228 +++++to 0.00123228
Heightened Def Con from 0.00123228 +++++to 0.00123228
Heightened Def Con from 0.00123228 +++++to 0.00123228
Heightened Def Con from 0.00123321 to 0.00123321

Date: Thu Nov 07 01:19:11 2024
Total elapsed time: 29.589 seconds.

tnom = 27
temp = 27
method = modified trap
totiter = 4483926
traniter = 4483429
tranpoints = 1486888
accept = 1352461
rejected = 143905
matrix size = 76
fillins = 62
solver = Normal
Thread vector: 4.6/3.5[2] 1.3/1.7[1] 1.1/1.5[1] 0.1/0.7[1]  2592/500
Matrix Compiler1: 5.91 KB object code size  0.9/0.4/[0.3]
Matrix Compiler2: 7.53 KB object code size  0.5/0.6/[0.4]

