Circuit: * E:\peak_detector\peak.asc

Direct Newton iteration failed to find .op point.  (Use ".option noopiter" to skip.)
Starting Gmin stepping
Gmin = 10
Gmin = 1.07374
Gmin = 0.115292
Gmin = 0.0123794
Gmin = 0.00132923
Gmin = 0.000142725
Gmin = 1.5325e-005
Gmin = 1.6455e-006
Gmin = 1.76685e-007
Gmin = 1.89714e-008
Gmin = 2.03704e-009
Gmin = 2.18725e-010
Gmin = 2.34854e-011
Gmin = 2.52173e-012
Gmin = 2.70769e-013
Gmin = 0
Gmin stepping succeeded in finding the operating point.

Heightened Def Con from 3.9299e-008 to 3.9299e-008
Heightened Def Con from 4.12631e-008 to 4.12631e-008
Heightened Def Con from 4.12631e-008 to 4.12631e-008
Heightened Def Con from 4.18146e-008 to 4.18146e-008
Heightened Def Con from 1.34251e-007 to 1.34251e-007
Heightened Def Con from 2.74597e-007 to 2.74597e-007
Heightened Def Con from 4.23061e-007 +to 4.23061e-007
Heightened Def Con from 4.23061e-007 to 4.23061e-007
Heightened Def Con from 4.23061e-007 ++to 4.23061e-007
Heightened Def Con from 4.23061e-007 +to 4.23061e-007
Heightened Def Con from 4.23061e-007 +to 4.23061e-007
Heightened Def Con from 4.23061e-007 ++to 4.23061e-007
Heightened Def Con from 4.23061e-007 +++to 4.23061e-007
Heightened Def Con from 4.23061e-007 +++to 4.23061e-007
Heightened Def Con from 4.23061e-007 ++++to 4.23061e-007
Heightened Def Con from 4.23061e-007 +to 4.23061e-007
Heightened Def Con from 4.23061e-007 +to 4.23061e-007
Heightened Def Con from 4.23061e-007 +to 4.23061e-007
Heightened Def Con from 4.23061e-007 +to 4.23061e-007
Heightened Def Con from 4.23061e-007 to 4.23061e-007
Heightened Def Con from 4.23061e-007 to 4.23061e-007
Heightened Def Con from 4.23061e-007 to 4.23061e-007
Heightened Def Con from 4.23061e-007 +to 4.23061e-007
Heightened Def Con from 4.23061e-007 to 4.23061e-007
Heightened Def Con from 4.23061e-007 ++++to 4.23061e-007
Heightened Def Con from 4.23061e-007 ++to 4.23061e-007
Heightened Def Con from 4.23061e-007 +++++to 4.23061e-007
Heightened Def Con from 4.23061e-007 to 4.23061e-007
Heightened Def Con from 4.23061e-007 ++++to 4.23061e-007
Heightened Def Con from 4.23061e-007 ++++to 4.23061e-007
Heightened Def Con from 4.23061e-007 +++++to 4.23061e-007
Heightened Def Con from 4.23061e-007 +++++to 4.23061e-007
Heightened Def Con from 4.23061e-007 +++to 4.23061e-007
Heightened Def Con from 4.23061e-007 +++++to 4.23061e-007
Heightened Def Con from 4.23061e-007 +++to 4.23061e-007
Heightened Def Con from 4.23061e-007 to 4.23061e-007
Heightened Def Con from 4.23061e-007 ++++++to 4.23061e-007
Heightened Def Con from 4.23061e-007 +to 4.23061e-007
Heightened Def Con from 4.23061e-007 ++to 4.23061e-007
Heightened Def Con from 4.23061e-007 to 4.23061e-007
Heightened Def Con from 4.23061e-007 to 4.23061e-007
Heightened Def Con from 4.23061e-007 to 4.23061e-007
Heightened Def Con from 4.23061e-007 ++++to 4.23061e-007
Heightened Def Con from 4.23061e-007 to 4.23061e-007
Heightened Def Con from 4.23061e-007 to 4.23061e-007
Heightened Def Con from 4.23061e-007 +++to 4.23061e-007
Heightened Def Con from 4.23061e-007 +++++to 4.23061e-007
Heightened Def Con from 4.23061e-007 ++++++++++++++to 4.23063e-007
Heightened Def Con from 4.23063e-007 +++++++++++++to 4.23063e-007
Heightened Def Con from 4.23063e-007 to 4.26063e-007
Heightened Def Con from 8.746e-007 to 8.746e-007
Heightened Def Con from 8.746e-007 to 8.746e-007
Heightened Def Con from 1.17467e-006 to 1.17467e-006
Heightened Def Con from 1.17467e-006 to 1.17467e-006
Heightened Def Con from 1.17467e-006 to 1.17467e-006
Heightened Def Con from 1.32298e-006 to 1.32298e-006
Heightened Def Con from 1.32298e-006 to 1.32298e-006
Heightened Def Con from 1.37463e-006 to 1.37463e-006
Heightened Def Con from 1.37463e-006 to 1.37463e-006
Heightened Def Con from 1.37463e-006 to 1.37463e-006
Heightened Def Con from 1.72295e-006 to 1.72295e-006
Heightened Def Con from 1.82294e-006 ++to 1.82294e-006
Heightened Def Con from 1.82294e-006 to 1.82294e-006
Heightened Def Con from 1.82294e-006 to 1.82294e-006
Heightened Def Con from 1.82294e-006 to 1.82294e-006
Heightened Def Con from 1.82294e-006 to 1.82294e-006
Heightened Def Con from 1.82294e-006 to 1.82294e-006
Heightened Def Con from 1.82294e-006 ++to 1.82294e-006
Heightened Def Con from 1.82294e-006 ++to 1.82294e-006
Heightened Def Con from 1.82294e-006 to 1.82294e-006
Heightened Def Con from 1.82294e-006 +to 1.82294e-006
Heightened Def Con from 1.82294e-006 +++to 1.82294e-006
Heightened Def Con from 1.82294e-006 ++to 1.82294e-006
Heightened Def Con from 1.82294e-006 +to 1.82294e-006
Heightened Def Con from 1.82294e-006 +++to 1.82294e-006
Heightened Def Con from 1.82294e-006 ++++to 1.82294e-006
Heightened Def Con from 1.82294e-006 +to 1.82294e-006
Heightened Def Con from 1.82294e-006 ++to 1.82294e-006
Heightened Def Con from 1.82294e-006 to 1.82294e-006
Heightened Def Con from 1.82294e-006 to 1.82294e-006
Heightened Def Con from 1.82294e-006 +to 1.82294e-006
Heightened Def Con from 1.82294e-006 +++to 1.82294e-006
Heightened Def Con from 1.82294e-006 +++to 1.82294e-006
Heightened Def Con from 1.82294e-006 ++++++to 1.82294e-006
Heightened Def Con from 1.82294e-006 +++to 1.82294e-006
Heightened Def Con from 1.82294e-006 ++++to 1.82294e-006
Heightened Def Con from 1.82294e-006 ++to 1.82294e-006
Heightened Def Con from 1.82294e-006 +++to 1.82294e-006
Heightened Def Con from 1.82294e-006 ++to 1.82294e-006
Heightened Def Con from 1.82294e-006 ++to 1.82294e-006
Heightened Def Con from 1.82294e-006 +to 1.82294e-006
Heightened Def Con from 1.82294e-006 +++++to 1.82294e-006
Heightened Def Con from 1.82294e-006 +++to 1.82294e-006
Heightened Def Con from 1.82294e-006 +++to 1.82294e-006
Heightened Def Con from 1.82294e-006 ++++to 1.82294e-006
Heightened Def Con from 1.82294e-006 +++++to 1.82294e-006
Heightened Def Con from 1.82294e-006 +to 1.82294e-006
Heightened Def Con from 1.82294e-006 +to 1.82294e-006
Heightened Def Con from 1.82294e-006 to 1.82294e-006
Heightened Def Con from 1.82294e-006 ++to 1.82294e-006
Heightened Def Con from 1.82294e-006 ++++to 1.82294e-006
Heightened Def Con from 1.82294e-006 ++++to 1.82294e-006
Heightened Def Con from 1.82294e-006 ++++++++++++++to 1.82294e-006
Heightened Def Con from 1.82294e-006 ++++++++++++++to 1.82294e-006
Heightened Def Con from 1.92293e-006 to 1.92293e-006
Heightened Def Con from 1.92293e-006 to 1.92293e-006
Heightened Def Con from 1.92293e-006 to 1.92293e-006
Heightened Def Con from 1.92293e-006 to 1.92293e-006
Heightened Def Con from 1.92293e-006 ++to 1.92293e-006
Heightened Def Con from 1.92293e-006 to 1.92293e-006
Heightened Def Con from 1.92293e-006 +to 1.92293e-006
Heightened Def Con from 1.92293e-006 ++to 1.92293e-006
Heightened Def Con from 1.92293e-006 to 1.92293e-006
Heightened Def Con from 1.92293e-006 to 1.92293e-006
Heightened Def Con from 1.92293e-006 +++++to 1.92293e-006
Heightened Def Con from 1.92293e-006 to 1.92293e-006
Heightened Def Con from 1.92293e-006 to 1.92293e-006
Heightened Def Con from 1.92293e-006 to 1.92293e-006
Heightened Def Con from 1.92293e-006 +to 1.92293e-006
Heightened Def Con from 1.92293e-006 to 1.92293e-006
Heightened Def Con from 1.92293e-006 to 1.92293e-006
Heightened Def Con from 1.92293e-006 to 1.92293e-006
Heightened Def Con from 1.92293e-006 ++to 1.92293e-006
Heightened Def Con from 1.92293e-006 ++to 1.92293e-006
Heightened Def Con from 1.92293e-006 to 1.92293e-006
Heightened Def Con from 1.92293e-006 +to 1.92293e-006
Heightened Def Con from 1.92293e-006 ++to 1.92293e-006
Heightened Def Con from 1.92293e-006 ++++to 1.92293e-006
Heightened Def Con from 1.92293e-006 ++++to 1.92293e-006
Heightened Def Con from 1.92293e-006 ++++++++++++++to 1.92293e-006
Heightened Def Con from 1.92293e-006 ++++++++++++++to 1.92293e-006
Heightened Def Con from 1.9746e-006 to 1.9746e-006
Heightened Def Con from 1.9746e-006 to 1.9746e-006
Heightened Def Con from 1.9746e-006 to 1.9746e-006
Heightened Def Con from 2.0746e-006 to 2.0746e-006
Heightened Def Con from 2.0746e-006 to 2.0746e-006
Heightened Def Con from 2.37462e-006 to 2.37462e-006
Heightened Def Con from 2.52288e-006 to 2.52288e-006
Heightened Def Con from 2.52288e-006 +to 2.52288e-006
Heightened Def Con from 2.52288e-006 +to 2.52288e-006
Heightened Def Con from 2.52288e-006 +++to 2.52288e-006
Heightened Def Con from 2.52288e-006 +to 2.52288e-006
Heightened Def Con from 2.52288e-006 to 2.52288e-006
Heightened Def Con from 2.52288e-006 ++++to 2.52288e-006
Heightened Def Con from 2.52288e-006 ++++to 2.52288e-006
Heightened Def Con from 2.52288e-006 to 2.52288e-006
Heightened Def Con from 2.52288e-006 ++to 2.52288e-006
Heightened Def Con from 2.52288e-006 ++to 2.52288e-006
Heightened Def Con from 2.52288e-006 to 2.52288e-006
Heightened Def Con from 2.52288e-006 ++to 2.52288e-006
Heightened Def Con from 2.52288e-006 ++++++++to 2.52288e-006
Heightened Def Con from 2.52288e-006 ++++to 2.52288e-006
Heightened Def Con from 2.52288e-006 ++++to 2.52288e-006
Heightened Def Con from 2.52288e-006 ++++to 2.52288e-006
Heightened Def Con from 2.52288e-006 ++to 2.52288e-006
Heightened Def Con from 2.52288e-006 to 2.52288e-006
Heightened Def Con from 2.52288e-006 +++to 2.52288e-006
Heightened Def Con from 2.52288e-006 +++++to 2.52288e-006
Heightened Def Con from 2.52288e-006 ++to 2.52288e-006
Heightened Def Con from 2.52288e-006 ++to 2.52288e-006
Heightened Def Con from 2.52288e-006 +++to 2.52288e-006
Heightened Def Con from 2.52288e-006 +++to 2.52288e-006
Heightened Def Con from 2.52288e-006 +++to 2.52288e-006
Heightened Def Con from 2.52288e-006 ++to 2.52288e-006
Heightened Def Con from 2.52288e-006 +++to 2.52288e-006
Heightened Def Con from 2.52288e-006 +++++to 2.52288e-006
Heightened Def Con from 2.52288e-006 ++++++to 2.52288e-006
Heightened Def Con from 2.52288e-006 +++to 2.52288e-006
Heightened Def Con from 2.52288e-006 ++++to 2.52288e-006
Heightened Def Con from 2.52288e-006 ++to 2.52288e-006
Heightened Def Con from 2.52288e-006 +to 2.52288e-006
Heightened Def Con from 2.52288e-006 to 2.52288e-006
Heightened Def Con from 2.52288e-006 to 2.52288e-006
Heightened Def Con from 2.52288e-006 to 2.52288e-006
Heightened Def Con from 2.52288e-006 +++to 2.52288e-006
Heightened Def Con from 2.52288e-006 to 2.52288e-006
Heightened Def Con from 2.52288e-006 ++to 2.52288e-006
Heightened Def Con from 2.52288e-006 +to 2.52288e-006
Heightened Def Con from 2.52288e-006 ++++to 2.52288e-006
Heightened Def Con from 2.52288e-006 ++++++to 2.52288e-006
Heightened Def Con from 2.52288e-006 +++++++to 2.52288e-006
Heightened Def Con from 2.52288e-006 +to 2.52288e-006
Heightened Def Con from 2.52288e-006 ++++++++++++++++++++to 2.524e-006
Heightened Def Con from 2.57463e-006 to 2.57463e-006
Heightened Def Con from 2.57463e-006 to 2.57463e-006
Heightened Def Con from 3.07467e-006 +++++++++++to 3.07468e-006
Heightened Def Con from 3.22964e-006 to 3.22964e-006
Heightened Def Con from 3.22964e-006 to 3.22964e-006
Heightened Def Con from 3.22964e-006 to 3.22964e-006
Heightened Def Con from 3.22964e-006 to 3.22964e-006
Heightened Def Con from 3.22964e-006 ++to 3.22964e-006
Heightened Def Con from 3.22964e-006 +to 3.22964e-006
Heightened Def Con from 3.22964e-006 to 3.22964e-006
Heightened Def Con from 3.22964e-006 to 3.22964e-006
Heightened Def Con from 3.22964e-006 to 3.22964e-006
Heightened Def Con from 3.22964e-006 +to 3.22964e-006
Heightened Def Con from 3.22964e-006 to 3.22964e-006
Heightened Def Con from 3.22964e-006 to 3.22964e-006
Heightened Def Con from 3.22964e-006 to 3.22964e-006
Heightened Def Con from 3.22964e-006 +to 3.22964e-006
Heightened Def Con from 3.22964e-006 to 3.22964e-006
Heightened Def Con from 3.22964e-006 to 3.22964e-006
Heightened Def Con from 3.22964e-006 to 3.22964e-006
Heightened Def Con from 3.22964e-006 to 3.22964e-006
Heightened Def Con from 3.22964e-006 ++to 3.22964e-006
Heightened Def Con from 3.22964e-006 to 3.22964e-006
Heightened Def Con from 3.22964e-006 to 3.22964e-006
Heightened Def Con from 3.22964e-006 to 3.22964e-006
Heightened Def Con from 3.22964e-006 to 3.22964e-006
Heightened Def Con from 3.22964e-006 +to 3.22964e-006
Heightened Def Con from 3.22964e-006 +to 3.22964e-006
Heightened Def Con from 3.22964e-006 ++to 3.22964e-006
Heightened Def Con from 3.22964e-006 +to 3.22964e-006
Heightened Def Con from 3.22964e-006 ++++++++++++++++++++to 3.23264e-006
Heightened Def Con from 3.27477e-006 to 3.27477e-006
Heightened Def Con from 3.27477e-006 to 3.27477e-006
Heightened Def Con from 3.27477e-006 to 3.27477e-006
Heightened Def Con from 3.27477e-006 to 3.27477e-006
Heightened Def Con from 3.27477e-006 to 3.27477e-006
Heightened Def Con from 3.27477e-006 to 3.27477e-006
Heightened Def Con from 3.32281e-006 to 3.32281e-006
Heightened Def Con from 3.32281e-006 to 3.32281e-006
Heightened Def Con from 3.32281e-006 +to 3.32281e-006
Heightened Def Con from 3.32281e-006 to 3.32281e-006
Heightened Def Con from 3.32281e-006 to 3.32281e-006
Heightened Def Con from 3.32281e-006 +to 3.32281e-006
Heightened Def Con from 3.32281e-006 +++to 3.32281e-006
Heightened Def Con from 3.32281e-006 ++to 3.32281e-006
Heightened Def Con from 3.32281e-006 to 3.32281e-006
Heightened Def Con from 3.32281e-006 to 3.32281e-006
Heightened Def Con from 3.32281e-006 to 3.32281e-006
Heightened Def Con from 3.32281e-006 ++to 3.32281e-006
Heightened Def Con from 3.32281e-006 ++++to 3.32281e-006
Heightened Def Con from 3.32281e-006 to 3.32281e-006
Heightened Def Con from 3.32281e-006 +to 3.32281e-006
Heightened Def Con from 3.32281e-006 +to 3.32281e-006
Heightened Def Con from 3.32281e-006 +++to 3.32281e-006
Heightened Def Con from 3.32281e-006 +++++to 3.32281e-006
Heightened Def Con from 3.32281e-006 ++to 3.32281e-006
Heightened Def Con from 3.32281e-006 ++to 3.32281e-006
Heightened Def Con from 3.32281e-006 to 3.32281e-006
Heightened Def Con from 3.32281e-006 +++++to 3.32281e-006
Heightened Def Con from 3.32281e-006 +++++to 3.32281e-006
Heightened Def Con from 3.32281e-006 +to 3.32281e-006
Heightened Def Con from 3.32281e-006 to 3.32281e-006
Heightened Def Con from 3.32281e-006 ++to 3.32281e-006
Heightened Def Con from 3.32281e-006 to 3.32281e-006
Heightened Def Con from 3.32281e-006 ++to 3.32281e-006
Heightened Def Con from 3.32281e-006 ++to 3.32281e-006
Heightened Def Con from 3.32281e-006 +++to 3.32281e-006
Heightened Def Con from 3.32281e-006 +to 3.32281e-006
Heightened Def Con from 3.32281e-006 +to 3.32281e-006
Heightened Def Con from 3.32281e-006 +to 3.32281e-006
Heightened Def Con from 3.32281e-006 +to 3.32281e-006
Heightened Def Con from 3.32281e-006 ++++to 3.32281e-006
Heightened Def Con from 3.32281e-006 to 3.32281e-006
Heightened Def Con from 3.32281e-006 to 3.32281e-006
Heightened Def Con from 3.32281e-006 +++to 3.32281e-006
Heightened Def Con from 3.32281e-006 +++++to 3.32281e-006
Heightened Def Con from 3.32281e-006 +++to 3.32281e-006
Heightened Def Con from 3.32281e-006 +to 3.32281e-006
Heightened Def Con from 3.32281e-006 +++++to 3.32281e-006
Heightened Def Con from 3.32281e-006 ++++++++to 3.32281e-006
Heightened Def Con from 3.32281e-006 to 3.32281e-006
Heightened Def Con from 3.32281e-006 +to 3.32281e-006
Heightened Def Con from 3.32281e-006 to 3.32281e-006
Heightened Def Con from 3.32281e-006 ++++++to 3.32281e-006
Heightened Def Con from 3.32281e-006 ++++to 3.32281e-006
Heightened Def Con from 3.32281e-006 ++to 3.32281e-006
Heightened Def Con from 3.32281e-006 to 3.32281e-006
Heightened Def Con from 3.32281e-006 to 3.32281e-006
Heightened Def Con from 3.32281e-006 to 3.32281e-006
Heightened Def Con from 3.32281e-006 +++to 3.32281e-006
Heightened Def Con from 3.32281e-006 ++to 3.32281e-006
Heightened Def Con from 3.32281e-006 to 3.32281e-006
Heightened Def Con from 3.32281e-006 ++to 3.32281e-006
Heightened Def Con from 3.32281e-006 to 3.32281e-006
Heightened Def Con from 3.32281e-006 ++to 3.32281e-006
Heightened Def Con from 3.32281e-006 to 3.32281e-006
Heightened Def Con from 3.32281e-006 to 3.32281e-006
Heightened Def Con from 3.32281e-006 ++to 3.32281e-006
Heightened Def Con from 3.32281e-006 ++to 3.32281e-006
Heightened Def Con from 3.32281e-006 to 3.32281e-006
Heightened Def Con from 3.32281e-006 +++++++to 3.32281e-006
Heightened Def Con from 3.32281e-006 ++++++to 3.32281e-006
Heightened Def Con from 3.32281e-006 +++to 3.32281e-006
Heightened Def Con from 3.32281e-006 ++to 3.32281e-006
Heightened Def Con from 3.32281e-006 +to 3.32281e-006
Heightened Def Con from 3.32281e-006 +++to 3.32281e-006
Heightened Def Con from 3.32281e-006 to 3.32281e-006
Heightened Def Con from 3.32281e-006 to 3.32281e-006
Heightened Def Con from 3.32281e-006 ++++to 3.32281e-006
Heightened Def Con from 3.32281e-006 ++++to 3.32281e-006
Heightened Def Con from 3.32281e-006 +++to 3.32281e-006
Heightened Def Con from 3.32281e-006 to 3.32281e-006
Heightened Def Con from 3.32281e-006 +++++to 3.32281e-006
Heightened Def Con from 3.32281e-006 +to 3.32281e-006
Heightened Def Con from 3.32281e-006 ++++to 3.32281e-006
Heightened Def Con from 3.32281e-006 ++to 3.32281e-006
Heightened Def Con from 3.32281e-006 +++to 3.32281e-006
Heightened Def Con from 3.32281e-006 ++++to 3.32281e-006
Heightened Def Con from 3.32281e-006 +to 3.32281e-006
Heightened Def Con from 3.32281e-006 +to 3.32281e-006
Heightened Def Con from 3.32281e-006 ++++++to 3.32281e-006
Heightened Def Con from 3.32281e-006 ++++++to 3.32281e-006
Heightened Def Con from 3.32281e-006 ++to 3.32281e-006
Heightened Def Con from 3.32281e-006 ++to 3.32281e-006
Heightened Def Con from 3.32281e-006 ++++++to 3.32281e-006
Heightened Def Con from 3.32281e-006 ++++++to 3.32281e-006
Heightened Def Con from 3.32281e-006 ++++++to 3.32281e-006
Heightened Def Con from 3.32281e-006 ++to 3.32281e-006
Heightened Def Con from 3.32281e-006 to 3.32281e-006
Heightened Def Con from 3.32281e-006 +++++++to 3.32281e-006
Heightened Def Con from 3.32281e-006 ++++to 3.32281e-006
Heightened Def Con from 3.32281e-006 +++++++to 3.32281e-006
Heightened Def Con from 3.32281e-006 +++++++to 3.32281e-006
Heightened Def Con from 3.32281e-006 ++to 3.32281e-006
Heightened Def Con from 3.32281e-006 +to 3.32281e-006
Heightened Def Con from 3.32281e-006 +to 3.32281e-006
Heightened Def Con from 3.32281e-006 +to 3.32281e-006
Heightened Def Con from 3.32281e-006 +to 3.32281e-006
Heightened Def Con from 3.32281e-006 to 3.32281e-006
Heightened Def Con from 3.32281e-006 to 3.32281e-006
Heightened Def Con from 3.32281e-006 +to 3.32281e-006
Heightened Def Con from 3.32281e-006 to 3.32281e-006
Heightened Def Con from 3.32281e-006 ++to 3.32281e-006
Heightened Def Con from 3.32281e-006 +to 3.32281e-006
Heightened Def Con from 3.32281e-006 +to 3.32281e-006
Heightened Def Con from 3.32281e-006 ++++++to 3.32281e-006
Heightened Def Con from 3.32281e-006 to 3.32281e-006
Heightened Def Con from 3.32281e-006 ++++to 3.32281e-006
Heightened Def Con from 3.32281e-006 to 3.32281e-006
Heightened Def Con from 3.32281e-006 +to 3.32281e-006
Heightened Def Con from 3.32281e-006 to 3.32281e-006
Heightened Def Con from 3.32281e-006 to 3.32281e-006
Heightened Def Con from 3.32281e-006 ++to 3.32281e-006
Heightened Def Con from 3.32281e-006 ++to 3.32281e-006
Heightened Def Con from 3.32281e-006 +++++to 3.32281e-006
Heightened Def Con from 3.32281e-006 +++to 3.32281e-006
Heightened Def Con from 3.32281e-006 +to 3.32281e-006
Heightened Def Con from 3.32281e-006 +to 3.32281e-006
Heightened Def Con from 3.32281e-006 to 3.32281e-006
Heightened Def Con from 3.32281e-006 +++to 3.32281e-006
Heightened Def Con from 3.32281e-006 ++to 3.32281e-006
Heightened Def Con from 3.32281e-006 ++to 3.32281e-006
Heightened Def Con from 3.32281e-006 +++++to 3.32281e-006
Heightened Def Con from 3.32281e-006 +++to 3.32281e-006
Heightened Def Con from 3.32281e-006 to 3.32281e-006
Heightened Def Con from 3.32281e-006 to 3.32281e-006
Heightened Def Con from 3.32281e-006 ++to 3.32281e-006
Heightened Def Con from 3.32281e-006 ++to 3.32281e-006
Heightened Def Con from 3.32281e-006 to 3.32281e-006
Heightened Def Con from 3.32281e-006 ++to 3.32281e-006
Heightened Def Con from 3.32281e-006 +++to 3.32281e-006
Heightened Def Con from 3.32281e-006 +++to 3.32281e-006
Heightened Def Con from 3.32281e-006 +to 3.32281e-006
Heightened Def Con from 3.32281e-006 to 3.32281e-006
Heightened Def Con from 3.32281e-006 +to 3.32281e-006
Heightened Def Con from 3.32281e-006 ++++to 3.32281e-006
Heightened Def Con from 3.32281e-006 ++to 3.32281e-006
Heightened Def Con from 3.32281e-006 +to 3.32281e-006
Heightened Def Con from 3.32281e-006 +++to 3.32281e-006
Heightened Def Con from 3.32281e-006 +++to 3.32281e-006
Heightened Def Con from 3.32281e-006 to 3.32281e-006
Heightened Def Con from 3.32281e-006 +++to 3.32281e-006
Heightened Def Con from 3.32281e-006 +to 3.32281e-006
Heightened Def Con from 3.32281e-006 to 3.32281e-006
Heightened Def Con from 3.32281e-006 to 3.32281e-006
Heightened Def Con from 3.32281e-006 ++to 3.32281e-006
Heightened Def Con from 3.32281e-006 ++++++to 3.32281e-006
Heightened Def Con from 3.32281e-006 +++++to 3.32281e-006
Heightened Def Con from 3.32281e-006 +++to 3.32281e-006
Heightened Def Con from 3.32281e-006 +++to 3.32281e-006
Heightened Def Con from 3.32281e-006 +++++to 3.32281e-006
Heightened Def Con from 3.32281e-006 ++to 3.32281e-006
Heightened Def Con from 3.32281e-006 +++to 3.32281e-006
Heightened Def Con from 3.32281e-006 to 3.32281e-006
Heightened Def Con from 3.32281e-006 +++to 3.32281e-006
Heightened Def Con from 3.32281e-006 +++++to 3.32281e-006
Heightened Def Con from 3.32281e-006 +++++++to 3.32281e-006
Heightened Def Con from 3.32281e-006 ++++to 3.32281e-006
Heightened Def Con from 3.32281e-006 ++++to 3.32281e-006
Heightened Def Con from 3.32281e-006 +to 3.32281e-006
Heightened Def Con from 3.32281e-006 +++++to 3.32281e-006
Heightened Def Con from 3.32281e-006 ++to 3.32281e-006
Heightened Def Con from 3.32281e-006 +++++to 3.32281e-006
Heightened Def Con from 3.32281e-006 ++to 3.32281e-006
Heightened Def Con from 3.32281e-006 +++to 3.32281e-006
Heightened Def Con from 3.32281e-006 ++++to 3.32281e-006
Heightened Def Con from 3.32281e-006 ++++to 3.32281e-006
Heightened Def Con from 3.32281e-006 +++to 3.32281e-006
Heightened Def Con from 3.32281e-006 ++to 3.32281e-006
Heightened Def Con from 3.32281e-006 +to 3.32281e-006
Heightened Def Con from 3.32281e-006 to 3.32281e-006
Heightened Def Con from 3.32281e-006 ++++++to 3.32281e-006
Heightened Def Con from 3.32281e-006 to 3.32281e-006
Heightened Def Con from 3.32281e-006 +to 3.32281e-006
Heightened Def Con from 3.32281e-006 +++++++to 3.32281e-006
Heightened Def Con from 3.32281e-006 ++++++to 3.32281e-006
Heightened Def Con from 3.32281e-006 ++++to 3.32281e-006
Heightened Def Con from 3.32281e-006 ++to 3.32281e-006
Heightened Def Con from 3.32281e-006 +to 3.32281e-006
Heightened Def Con from 3.32281e-006 to 3.32281e-006
Heightened Def Con from 3.32281e-006 ++to 3.32281e-006
Heightened Def Con from 3.32281e-006 ++to 3.32281e-006
Heightened Def Con from 3.32281e-006 ++++to 3.32281e-006
Heightened Def Con from 3.32281e-006 ++++to 3.32281e-006
Heightened Def Con from 3.32281e-006 ++++++to 3.32281e-006
Heightened Def Con from 3.32281e-006 ++to 3.32281e-006
Heightened Def Con from 3.32281e-006 ++++++to 3.32281e-006
Heightened Def Con from 3.32281e-006 +to 3.32281e-006
Heightened Def Con from 3.32281e-006 ++++++++to 3.32281e-006
Heightened Def Con from 3.32281e-006 ++++++to 3.32281e-006
Heightened Def Con from 3.32281e-006 ++++++to 3.32281e-006
Heightened Def Con from 3.32281e-006 +to 3.32281e-006
Heightened Def Con from 3.32281e-006 ++to 3.32281e-006
Heightened Def Con from 3.32281e-006 +++to 3.32281e-006
Heightened Def Con from 3.32281e-006 ++++++to 3.32281e-006
Heightened Def Con from 3.32281e-006 ++++++to 3.32281e-006
Heightened Def Con from 3.32281e-006 +++++++to 3.32281e-006
Heightened Def Con from 3.32281e-006 ++++++to 3.32281e-006
Heightened Def Con from 3.32281e-006 +++++++to 3.32281e-006
Heightened Def Con from 3.32281e-006 +++++++to 3.32281e-006
Heightened Def Con from 3.32281e-006 +++to 3.32281e-006
Heightened Def Con from 3.32281e-006 ++++++to 3.32281e-006
Heightened Def Con from 3.32281e-006 +++to 3.32281e-006
Heightened Def Con from 3.32281e-006 ++++++to 3.32281e-006
Heightened Def Con from 3.32281e-006 +to 3.32281e-006
Heightened Def Con from 3.32281e-006 +++to 3.32281e-006
Heightened Def Con from 3.32281e-006 ++++++to 3.32281e-006
Heightened Def Con from 3.32281e-006 +to 3.32281e-006
Heightened Def Con from 3.32281e-006 +to 3.32281e-006
Heightened Def Con from 3.32281e-006 to 3.32281e-006
Heightened Def Con from 3.32281e-006 to 3.32281e-006
Heightened Def Con from 3.32281e-006 ++to 3.32281e-006
Heightened Def Con from 3.32281e-006 +++to 3.32281e-006
Heightened Def Con from 3.32281e-006 +++++to 3.32281e-006
Heightened Def Con from 3.32281e-006 ++++++to 3.32281e-006
Heightened Def Con from 3.32281e-006 +to 3.32281e-006
Heightened Def Con from 3.32281e-006 to 3.32281e-006
Heightened Def Con from 3.32281e-006 +to 3.32281e-006
Heightened Def Con from 3.32281e-006 ++to 3.32281e-006
Heightened Def Con from 3.32281e-006 +to 3.32281e-006
Heightened Def Con from 3.32281e-006 ++to 3.32281e-006
Heightened Def Con from 3.32281e-006 to 3.32281e-006
Heightened Def Con from 3.32281e-006 to 3.32281e-006
Heightened Def Con from 3.32281e-006 +++to 3.32281e-006
Heightened Def Con from 3.32281e-006 +to 3.32281e-006
Heightened Def Con from 3.32281e-006 +to 3.32281e-006
Heightened Def Con from 3.32281e-006 ++++++to 3.32281e-006
Heightened Def Con from 3.32281e-006 to 3.32281e-006
Heightened Def Con from 3.32281e-006 to 3.32281e-006
Heightened Def Con from 3.32281e-006 +to 3.32281e-006
Heightened Def Con from 3.32281e-006 to 3.32281e-006
Heightened Def Con from 3.32281e-006 to 3.32281e-006
Heightened Def Con from 3.32281e-006 to 3.32281e-006
Heightened Def Con from 3.32281e-006 +to 3.32281e-006
Heightened Def Con from 3.32281e-006 ++to 3.32281e-006
Heightened Def Con from 3.32281e-006 to 3.32281e-006
Heightened Def Con from 3.32281e-006 ++to 3.32281e-006
Heightened Def Con from 3.32281e-006 to 3.32281e-006
Heightened Def Con from 3.32281e-006 +to 3.32281e-006
Heightened Def Con from 3.32281e-006 +to 3.32281e-006
Heightened Def Con from 3.32281e-006 ++++++to 3.32281e-006
Heightened Def Con from 3.32281e-006 +++++to 3.32281e-006
Heightened Def Con from 3.32281e-006 ++++++to 3.32281e-006
Heightened Def Con from 3.32281e-006 to 3.32281e-006
Heightened Def Con from 3.32281e-006 +to 3.32281e-006
Heightened Def Con from 3.32281e-006 +to 3.32281e-006
Heightened Def Con from 3.32281e-006 ++++to 3.32281e-006
Heightened Def Con from 3.32281e-006 ++++++to 3.32281e-006
Heightened Def Con from 3.32281e-006 to 3.32281e-006
Heightened Def Con from 3.32281e-006 ++++++++to 3.32281e-006
Heightened Def Con from 3.32281e-006 ++++to 3.32281e-006
Heightened Def Con from 3.32281e-006 ++++++to 3.32281e-006
Heightened Def Con from 3.32281e-006 ++++to 3.32281e-006
Heightened Def Con from 3.32281e-006 ++++++to 3.32281e-006
Heightened Def Con from 3.32281e-006 +to 3.32281e-006
Heightened Def Con from 3.32281e-006 +++++++to 3.32281e-006
Heightened Def Con from 3.32281e-006 +to 3.32281e-006
Heightened Def Con from 3.32281e-006 ++++to 3.32281e-006
Heightened Def Con from 3.32281e-006 +to 3.32281e-006
Heightened Def Con from 3.32281e-006 ++++to 3.32281e-006
Heightened Def Con from 3.32281e-006 ++++++to 3.32281e-006
Heightened Def Con from 3.32281e-006 +to 3.32281e-006
Heightened Def Con from 3.32281e-006 ++++to 3.32281e-006
Heightened Def Con from 3.32281e-006 +++to 3.32281e-006
Heightened Def Con from 3.32281e-006 ++to 3.32281e-006
Heightened Def Con from 3.32281e-006 +++to 3.32281e-006
Heightened Def Con from 3.32281e-006 ++to 3.32281e-006
Heightened Def Con from 3.32281e-006 ++to 3.32281e-006
Heightened Def Con from 3.32281e-006 +++++++to 3.32281e-006
Heightened Def Con from 3.32281e-006 to 3.32281e-006
Heightened Def Con from 3.32281e-006 to 3.32281e-006
Heightened Def Con from 3.32281e-006 +to 3.32281e-006
Heightened Def Con from 3.32281e-006 ++to 3.32281e-006
Heightened Def Con from 3.32281e-006 +to 3.32281e-006
Heightened Def Con from 3.32281e-006 +++to 3.32281e-006
Heightened Def Con from 3.32281e-006 ++++to 3.32281e-006
Heightened Def Con from 3.32281e-006 +++to 3.32281e-006
Heightened Def Con from 3.32281e-006 ++++++to 3.32281e-006
Heightened Def Con from 3.32281e-006 ++to 3.32281e-006
Heightened Def Con from 3.32281e-006 ++to 3.32281e-006
Heightened Def Con from 3.32281e-006 ++++to 3.32281e-006
Heightened Def Con from 3.32281e-006 to 3.32281e-006
Heightened Def Con from 3.32281e-006 +to 3.32281e-006
Heightened Def Con from 3.32281e-006 +to 3.32281e-006
Heightened Def Con from 3.32281e-006 +++to 3.32281e-006
Heightened Def Con from 3.32281e-006 +++to 3.32281e-006
Heightened Def Con from 3.32281e-006 +++to 3.32281e-006
Heightened Def Con from 3.32281e-006 to 3.32281e-006
Heightened Def Con from 3.32281e-006 +++++++to 3.32281e-006
Heightened Def Con from 3.32281e-006 to 3.32281e-006
Heightened Def Con from 3.32281e-006 +++++to 3.32281e-006
Heightened Def Con from 3.32281e-006 ++to 3.32281e-006
Heightened Def Con from 3.32281e-006 +to 3.32281e-006
Heightened Def Con from 3.32281e-006 ++++to 3.32281e-006
Heightened Def Con from 3.32281e-006 +++to 3.32281e-006
Heightened Def Con from 3.32281e-006 +to 3.32281e-006
Heightened Def Con from 3.32281e-006 to 3.32281e-006
Heightened Def Con from 3.32281e-006 +++to 3.32281e-006
Heightened Def Con from 3.32281e-006 to 3.32281e-006
Heightened Def Con from 3.32281e-006 ++++++++to 3.32281e-006
Heightened Def Con from 3.32281e-006 +++to 3.32281e-006
Heightened Def Con from 3.32281e-006 ++++to 3.32281e-006
Heightened Def Con from 3.32281e-006 +to 3.32281e-006
Heightened Def Con from 3.32281e-006 to 3.32281e-006
Heightened Def Con from 3.32281e-006 +++++to 3.32281e-006
Heightened Def Con from 3.32281e-006 ++to 3.32281e-006
Heightened Def Con from 3.32281e-006 to 3.32281e-006
Heightened Def Con from 3.32281e-006 ++++++to 3.32281e-006
Heightened Def Con from 3.32281e-006 ++to 3.32281e-006
Heightened Def Con from 3.32281e-006 +++to 3.32281e-006
Heightened Def Con from 3.32281e-006 +++to 3.32281e-006
Heightened Def Con from 3.32281e-006 to 3.32281e-006
Heightened Def Con from 3.32281e-006 +++to 3.32281e-006
Heightened Def Con from 3.32281e-006 +++++to 3.32281e-006
Heightened Def Con from 3.32281e-006 +++to 3.32281e-006
Heightened Def Con from 3.32281e-006 to 3.32281e-006
Heightened Def Con from 3.32281e-006 to 3.32281e-006
Heightened Def Con from 3.32281e-006 +to 3.32281e-006
Heightened Def Con from 3.32281e-006 ++to 3.32281e-006
Heightened Def Con from 3.32281e-006 +to 3.32281e-006
Heightened Def Con from 3.32281e-006 ++++to 3.32281e-006
Heightened Def Con from 3.32281e-006 ++++to 3.32281e-006
Heightened Def Con from 3.32281e-006 +to 3.32281e-006
Heightened Def Con from 3.32281e-006 ++++to 3.32281e-006
Heightened Def Con from 3.32281e-006 +++++++to 3.32281e-006
Heightened Def Con from 3.32281e-006 ++to 3.32281e-006
Heightened Def Con from 3.32281e-006 to 3.32281e-006
Heightened Def Con from 3.32281e-006 +++++++to 3.32281e-006
Heightened Def Con from 3.32281e-006 ++++++++to 3.32281e-006
Heightened Def Con from 3.32281e-006 +to 3.32281e-006
Heightened Def Con from 3.32281e-006 ++to 3.32281e-006
Heightened Def Con from 3.32281e-006 ++++to 3.32281e-006
Heightened Def Con from 3.32281e-006 ++to 3.32281e-006
Heightened Def Con from 3.32281e-006 ++to 3.32281e-006
Heightened Def Con from 3.32281e-006 to 3.32281e-006
Heightened Def Con from 3.32281e-006 ++++to 3.32281e-006
Heightened Def Con from 3.32281e-006 to 3.32281e-006
Heightened Def Con from 3.32281e-006 to 3.32281e-006
Heightened Def Con from 3.32281e-006 ++++++to 3.32281e-006
Heightened Def Con from 3.32281e-006 ++++++++++++++++++++to 3.32393e-006
Heightened Def Con from 3.37474e-006 to 3.37474e-006
Heightened Def Con from 3.37474e-006 to 3.37474e-006
Heightened Def Con from 3.72278e-006 +to 3.72278e-006
Heightened Def Con from 3.72278e-006 +to 3.72278e-006
Heightened Def Con from 3.72278e-006 ++to 3.72278e-006
Heightened Def Con from 3.72278e-006 +to 3.72278e-006
Heightened Def Con from 3.72278e-006 +to 3.72278e-006
Heightened Def Con from 3.72278e-006 +to 3.72278e-006
Heightened Def Con from 3.72278e-006 to 3.72278e-006
Heightened Def Con from 3.72278e-006 +to 3.72278e-006
Heightened Def Con from 3.72278e-006 to 3.72278e-006
Heightened Def Con from 3.72278e-006 ++to 3.72278e-006
Heightened Def Con from 3.72278e-006 +to 3.72278e-006
Heightened Def Con from 3.72278e-006 to 3.72278e-006
Heightened Def Con from 3.72278e-006 ++to 3.72278e-006
Heightened Def Con from 3.72278e-006 to 3.72278e-006
Heightened Def Con from 3.72278e-006 +to 3.72278e-006
Heightened Def Con from 3.72278e-006 to 3.72278e-006
Heightened Def Con from 3.72278e-006 +to 3.72278e-006
Heightened Def Con from 3.72278e-006 +to 3.72278e-006
Heightened Def Con from 3.72278e-006 to 3.72278e-006
Heightened Def Con from 3.72278e-006 +to 3.72278e-006
Heightened Def Con from 3.72278e-006 ++to 3.72278e-006
Heightened Def Con from 3.72278e-006 ++to 3.72278e-006
Heightened Def Con from 3.72278e-006 to 3.72278e-006
Heightened Def Con from 3.72278e-006 ++to 3.72278e-006
Heightened Def Con from 3.72278e-006 ++++to 3.72278e-006
Heightened Def Con from 3.72278e-006 ++to 3.72278e-006
Heightened Def Con from 3.72278e-006 ++++to 3.72278e-006
Heightened Def Con from 3.72278e-006 to 3.72278e-006
Heightened Def Con from 3.72278e-006 +to 3.72278e-006
Heightened Def Con from 3.72278e-006 to 3.72278e-006
Heightened Def Con from 3.72278e-006 to 3.72278e-006
Heightened Def Con from 3.72278e-006 ++to 3.72278e-006
Heightened Def Con from 3.72278e-006 +to 3.72278e-006
Heightened Def Con from 3.72278e-006 +to 3.72278e-006
Heightened Def Con from 3.72278e-006 to 3.72278e-006
Heightened Def Con from 3.72278e-006 +++++to 3.72278e-006
Heightened Def Con from 3.72278e-006 ++++++to 3.72278e-006
Heightened Def Con from 3.72278e-006 +++to 3.72278e-006
Heightened Def Con from 3.72278e-006 ++++++++++++++++++++to 3.7239e-006
Heightened Def Con from 3.82969e-006 to 3.82969e-006
Heightened Def Con from 3.97458e-006 to 3.97458e-006
Heightened Def Con from 3.97458e-006 to 3.97458e-006
Heightened Def Con from 4.17455e-006 to 4.17455e-006
Heightened Def Con from 4.17455e-006 to 4.17455e-006
Heightened Def Con from 4.22972e-006 to 4.22972e-006
Heightened Def Con from 4.52271e-006 to 4.52273e-006
Heightened Def Con from 4.77476e-006 to 4.77476e-006
Heightened Def Con from 4.87469e-006 to 4.87469e-006
Heightened Def Con from 4.87469e-006 to 4.87469e-006
Heightened Def Con from 4.87469e-006 to 4.87469e-006
Heightened Def Con from 5.17454e-006 to 5.17454e-006
Heightened Def Con from 5.17454e-006 to 5.17454e-006
Heightened Def Con from 5.77475e-006 to 5.77475e-006
Heightened Def Con from 5.77475e-006 to 5.77475e-006
Heightened Def Con from 5.77475e-006 to 5.77475e-006
Heightened Def Con from 5.77475e-006 to 5.77475e-006
Heightened Def Con from 5.87475e-006 to 5.87475e-006
Heightened Def Con from 6.02259e-006 to 6.02259e-006
Heightened Def Con from 6.02259e-006 to 6.02259e-006
Heightened Def Con from 6.02259e-006 +to 6.02259e-006
Heightened Def Con from 6.02259e-006 to 6.02259e-006
Heightened Def Con from 6.02259e-006 to 6.02259e-006
Heightened Def Con from 6.02259e-006 to 6.02259e-006
Heightened Def Con from 6.02259e-006 to 6.02259e-006
Heightened Def Con from 6.02259e-006 to 6.02259e-006
Heightened Def Con from 6.02259e-006 to 6.02259e-006
Heightened Def Con from 6.02259e-006 to 6.02259e-006
Heightened Def Con from 6.02259e-006 to 6.02259e-006
Heightened Def Con from 6.02259e-006 to 6.02259e-006
Heightened Def Con from 6.02259e-006 ++to 6.02259e-006
Heightened Def Con from 6.02259e-006 ++to 6.02259e-006
Heightened Def Con from 6.02259e-006 to 6.02259e-006
Heightened Def Con from 6.02259e-006 to 6.02259e-006
Heightened Def Con from 6.02259e-006 to 6.02259e-006
Heightened Def Con from 6.02259e-006 to 6.02259e-006
Heightened Def Con from 6.02259e-006 to 6.02259e-006
Heightened Def Con from 6.02259e-006 to 6.02259e-006
Heightened Def Con from 6.02259e-006 to 6.02259e-006
Heightened Def Con from 6.02259e-006 to 6.02259e-006
Heightened Def Con from 6.02259e-006 to 6.02259e-006
Heightened Def Con from 6.02259e-006 to 6.02259e-006
Heightened Def Con from 6.02259e-006 to 6.02259e-006
Heightened Def Con from 6.02259e-006 to 6.02259e-006
Heightened Def Con from 6.02259e-006 to 6.02259e-006
Heightened Def Con from 6.02259e-006 to 6.02259e-006
Heightened Def Con from 6.02259e-006 to 6.02259e-006
Heightened Def Con from 6.02259e-006 to 6.02259e-006
Heightened Def Con from 6.02259e-006 +to 6.02259e-006
Heightened Def Con from 6.02259e-006 +++to 6.02259e-006
Heightened Def Con from 6.02259e-006 to 6.02259e-006
Heightened Def Con from 6.02259e-006 +to 6.02259e-006
Heightened Def Con from 6.02259e-006 to 6.02259e-006
Heightened Def Con from 6.02259e-006 to 6.02259e-006
Heightened Def Con from 6.02259e-006 +to 6.02259e-006
Heightened Def Con from 6.02259e-006 to 6.02259e-006
Heightened Def Con from 6.02259e-006 +to 6.02259e-006
Heightened Def Con from 6.02259e-006 +++to 6.02259e-006
Heightened Def Con from 6.02259e-006 to 6.02259e-006
Heightened Def Con from 6.02259e-006 to 6.02259e-006
Heightened Def Con from 6.02259e-006 to 6.02259e-006
Heightened Def Con from 6.02259e-006 to 6.02259e-006
Heightened Def Con from 6.02259e-006 to 6.02259e-006
Heightened Def Con from 6.02259e-006 to 6.02259e-006
Heightened Def Con from 6.02259e-006 to 6.02259e-006
Heightened Def Con from 6.02259e-006 to 6.02259e-006
Heightened Def Con from 6.02259e-006 to 6.02259e-006
Heightened Def Con from 6.02259e-006 to 6.02259e-006
Heightened Def Con from 6.02259e-006 ++to 6.02259e-006
Heightened Def Con from 6.02259e-006 to 6.02259e-006
Heightened Def Con from 6.02259e-006 to 6.02259e-006
Heightened Def Con from 6.02259e-006 to 6.02259e-006
Heightened Def Con from 6.02259e-006 to 6.02259e-006
Heightened Def Con from 6.02259e-006 to 6.02259e-006
Heightened Def Con from 6.02259e-006 +to 6.02259e-006
Heightened Def Con from 6.02259e-006 to 6.02259e-006
Heightened Def Con from 6.02259e-006 +to 6.02259e-006
Heightened Def Con from 6.02259e-006 to 6.02259e-006
Heightened Def Con from 6.02259e-006 to 6.02259e-006
Heightened Def Con from 6.02259e-006 to 6.02259e-006
Heightened Def Con from 6.02259e-006 to 6.02259e-006
Heightened Def Con from 6.02259e-006 to 6.02259e-006
Heightened Def Con from 6.02259e-006 +to 6.02259e-006
Heightened Def Con from 6.02259e-006 to 6.02259e-006
Heightened Def Con from 6.02259e-006 ++to 6.02259e-006
Heightened Def Con from 6.02259e-006 to 6.02259e-006
Heightened Def Con from 6.02259e-006 +++to 6.02259e-006
Heightened Def Con from 6.02259e-006 to 6.02259e-006
Heightened Def Con from 6.02259e-006 to 6.02259e-006
Heightened Def Con from 6.02259e-006 ++to 6.02259e-006
Heightened Def Con from 6.02259e-006 to 6.02259e-006
Heightened Def Con from 6.02259e-006 to 6.02259e-006
Heightened Def Con from 6.02259e-006 to 6.02259e-006
Heightened Def Con from 6.02259e-006 +to 6.02259e-006
Heightened Def Con from 6.02259e-006 to 6.02259e-006
Heightened Def Con from 6.02259e-006 to 6.02259e-006
Heightened Def Con from 6.02259e-006 to 6.02259e-006
Heightened Def Con from 6.02259e-006 +to 6.02259e-006
Heightened Def Con from 6.02259e-006 +to 6.02259e-006
Heightened Def Con from 6.02259e-006 to 6.02259e-006
Heightened Def Con from 6.02259e-006 +to 6.02259e-006
Heightened Def Con from 6.02259e-006 to 6.02259e-006
Heightened Def Con from 6.02259e-006 to 6.02259e-006
Heightened Def Con from 6.02259e-006 +to 6.02259e-006
Heightened Def Con from 6.02259e-006 to 6.02259e-006
Heightened Def Con from 6.02259e-006 +to 6.02259e-006
Heightened Def Con from 6.02259e-006 ++to 6.02259e-006
Heightened Def Con from 6.02259e-006 to 6.02259e-006
Heightened Def Con from 6.02259e-006 +++to 6.02259e-006
Heightened Def Con from 6.02259e-006 +to 6.02259e-006
Heightened Def Con from 6.02259e-006 to 6.02259e-006
Heightened Def Con from 6.02259e-006 to 6.02259e-006
Heightened Def Con from 6.02259e-006 to 6.02259e-006
Heightened Def Con from 6.02259e-006 +++to 6.02259e-006
Heightened Def Con from 6.02259e-006 +to 6.02259e-006
Heightened Def Con from 6.02259e-006 to 6.02259e-006
Heightened Def Con from 6.02259e-006 to 6.02259e-006
Heightened Def Con from 6.02259e-006 to 6.02259e-006
Heightened Def Con from 6.02259e-006 to 6.02259e-006
Heightened Def Con from 6.02259e-006 to 6.02259e-006
Heightened Def Con from 6.02259e-006 +to 6.02259e-006
Heightened Def Con from 6.02259e-006 to 6.02259e-006
Heightened Def Con from 6.02259e-006 to 6.02259e-006
Heightened Def Con from 6.02259e-006 +++to 6.02259e-006
Heightened Def Con from 6.02259e-006 ++to 6.02259e-006
Heightened Def Con from 6.02259e-006 +to 6.02259e-006
Heightened Def Con from 6.02259e-006 to 6.02259e-006
Heightened Def Con from 6.02259e-006 +++to 6.02259e-006
Heightened Def Con from 6.02259e-006 to 6.02259e-006
Heightened Def Con from 6.02259e-006 +to 6.02259e-006
Heightened Def Con from 6.02259e-006 +to 6.02259e-006
Heightened Def Con from 6.02259e-006 to 6.02259e-006
Heightened Def Con from 6.02259e-006 to 6.02259e-006
Heightened Def Con from 6.02259e-006 to 6.02259e-006
Heightened Def Con from 6.02259e-006 to 6.02259e-006
Heightened Def Con from 6.02259e-006 ++++to 6.02259e-006
Heightened Def Con from 6.02259e-006 to 6.02259e-006
Heightened Def Con from 6.02259e-006 to 6.02259e-006
Heightened Def Con from 6.02259e-006 +++to 6.02259e-006
Heightened Def Con from 6.02259e-006 to 6.02259e-006
Heightened Def Con from 6.02259e-006 +to 6.02259e-006
Heightened Def Con from 6.02259e-006 to 6.02259e-006
Heightened Def Con from 6.02259e-006 to 6.02259e-006
Heightened Def Con from 6.02259e-006 ++to 6.02259e-006
Heightened Def Con from 6.02259e-006 ++++to 6.02259e-006
Heightened Def Con from 6.02259e-006 +to 6.02259e-006
Heightened Def Con from 6.02259e-006 +to 6.02259e-006
Heightened Def Con from 6.02259e-006 +++to 6.02259e-006
Heightened Def Con from 6.02259e-006 to 6.02259e-006
Heightened Def Con from 6.02259e-006 to 6.02259e-006
Heightened Def Con from 6.02259e-006 +to 6.02259e-006
Heightened Def Con from 6.02259e-006 +to 6.02259e-006
Heightened Def Con from 6.02259e-006 to 6.02259e-006
Heightened Def Con from 6.02259e-006 to 6.02259e-006
Heightened Def Con from 6.02259e-006 to 6.02259e-006
Heightened Def Con from 6.02259e-006 ++to 6.02259e-006
Heightened Def Con from 6.02259e-006 +++to 6.02259e-006
Heightened Def Con from 6.02259e-006 ++to 6.02259e-006
Heightened Def Con from 6.02259e-006 to 6.02259e-006
Heightened Def Con from 6.02259e-006 +to 6.02259e-006
Heightened Def Con from 6.02259e-006 to 6.02259e-006
Heightened Def Con from 6.02259e-006 to 6.02259e-006
Heightened Def Con from 6.02259e-006 +to 6.02259e-006
Heightened Def Con from 6.02259e-006 to 6.02259e-006
Heightened Def Con from 6.02259e-006 +to 6.02259e-006
Heightened Def Con from 6.02259e-006 to 6.02259e-006
Heightened Def Con from 6.02259e-006 to 6.02259e-006
Heightened Def Con from 6.02259e-006 +to 6.02259e-006
Heightened Def Con from 6.02259e-006 to 6.02259e-006
Heightened Def Con from 6.02259e-006 to 6.02259e-006
Heightened Def Con from 6.02259e-006 +++++to 6.02259e-006
Heightened Def Con from 6.02259e-006 ++to 6.02259e-006
Heightened Def Con from 6.02259e-006 to 6.02259e-006
Heightened Def Con from 6.02259e-006 to 6.02259e-006
Heightened Def Con from 6.02259e-006 ++to 6.02259e-006
Heightened Def Con from 6.02259e-006 +to 6.02259e-006
Heightened Def Con from 6.02259e-006 to 6.02259e-006
Heightened Def Con from 6.02259e-006 +++to 6.02259e-006
Heightened Def Con from 6.02259e-006 to 6.02259e-006
Heightened Def Con from 6.02259e-006 to 6.02259e-006
Heightened Def Con from 6.02259e-006 +++to 6.02259e-006
Heightened Def Con from 6.02259e-006 +++to 6.02259e-006
Heightened Def Con from 6.02259e-006 to 6.02259e-006
Heightened Def Con from 6.02259e-006 to 6.02259e-006
Heightened Def Con from 6.02259e-006 to 6.02259e-006
Heightened Def Con from 6.02259e-006 +to 6.02259e-006
Heightened Def Con from 6.02259e-006 ++to 6.02259e-006
Heightened Def Con from 6.02259e-006 ++to 6.02259e-006
Heightened Def Con from 6.02259e-006 +to 6.02259e-006
Heightened Def Con from 6.02259e-006 +to 6.02259e-006
Heightened Def Con from 6.02259e-006 +to 6.02259e-006
Heightened Def Con from 6.02259e-006 +to 6.02259e-006
Heightened Def Con from 6.02259e-006 to 6.02259e-006
Heightened Def Con from 6.02259e-006 +to 6.02259e-006
Heightened Def Con from 6.02259e-006 to 6.02259e-006
Heightened Def Con from 6.02259e-006 +to 6.02259e-006
Heightened Def Con from 6.02259e-006 to 6.02259e-006
Heightened Def Con from 6.02259e-006 to 6.02259e-006
Heightened Def Con from 6.02259e-006 ++to 6.02259e-006
Heightened Def Con from 6.02259e-006 to 6.02259e-006
Heightened Def Con from 6.02259e-006 to 6.02259e-006
Heightened Def Con from 6.02259e-006 +to 6.02259e-006
Heightened Def Con from 6.02259e-006 to 6.02259e-006
Heightened Def Con from 6.02259e-006 ++to 6.02259e-006
Heightened Def Con from 6.02259e-006 to 6.02259e-006
Heightened Def Con from 6.02259e-006 to 6.02259e-006
Heightened Def Con from 6.02259e-006 to 6.02259e-006
Heightened Def Con from 6.02259e-006 +to 6.02259e-006
Heightened Def Con from 6.02259e-006 +to 6.02259e-006
Heightened Def Con from 6.02259e-006 +to 6.02259e-006
Heightened Def Con from 6.02259e-006 to 6.02259e-006
Heightened Def Con from 6.02259e-006 to 6.02259e-006
Heightened Def Con from 6.02259e-006 ++++to 6.02259e-006
Heightened Def Con from 6.02259e-006 to 6.02259e-006
Heightened Def Con from 6.02259e-006 +to 6.02259e-006
Heightened Def Con from 6.02259e-006 to 6.02259e-006
Heightened Def Con from 6.02259e-006 to 6.02259e-006
Heightened Def Con from 6.02259e-006 to 6.02259e-006
Heightened Def Con from 6.02259e-006 +to 6.02259e-006
Heightened Def Con from 6.02259e-006 ++to 6.02259e-006
Heightened Def Con from 6.02259e-006 ++to 6.02259e-006
Heightened Def Con from 6.02259e-006 to 6.02259e-006
Heightened Def Con from 6.02259e-006 +to 6.02259e-006
Heightened Def Con from 6.02259e-006 to 6.02259e-006
Heightened Def Con from 6.02259e-006 ++to 6.02259e-006
Heightened Def Con from 6.02259e-006 to 6.02259e-006
Heightened Def Con from 6.02259e-006 ++to 6.02259e-006
Heightened Def Con from 6.02259e-006 +to 6.02259e-006
Heightened Def Con from 6.02259e-006 +++to 6.02259e-006
Heightened Def Con from 6.02259e-006 +to 6.02259e-006
Heightened Def Con from 6.02259e-006 +to 6.02259e-006
Heightened Def Con from 6.02259e-006 +to 6.02259e-006
Heightened Def Con from 6.02259e-006 to 6.02259e-006
Heightened Def Con from 6.02259e-006 to 6.02259e-006
Heightened Def Con from 6.02259e-006 ++to 6.02259e-006
Heightened Def Con from 6.02259e-006 ++to 6.02259e-006
Heightened Def Con from 6.02259e-006 +to 6.02259e-006
Heightened Def Con from 6.02259e-006 to 6.02259e-006
Heightened Def Con from 6.02259e-006 +++to 6.02259e-006
Heightened Def Con from 6.02259e-006 to 6.02259e-006
Heightened Def Con from 6.02259e-006 +to 6.02259e-006
Heightened Def Con from 6.02259e-006 +to 6.02259e-006
Heightened Def Con from 6.02259e-006 +to 6.02259e-006
Heightened Def Con from 6.02259e-006 to 6.02259e-006
Heightened Def Con from 6.02259e-006 +to 6.02259e-006
Heightened Def Con from 6.02259e-006 to 6.02259e-006
Heightened Def Con from 6.02259e-006 +to 6.02259e-006
Heightened Def Con from 6.02259e-006 to 6.02259e-006
Heightened Def Con from 6.02259e-006 ++to 6.02259e-006
Heightened Def Con from 6.02259e-006 to 6.02259e-006
Heightened Def Con from 6.02259e-006 to 6.02259e-006
Heightened Def Con from 6.02259e-006 ++to 6.02259e-006
Heightened Def Con from 6.02259e-006 +to 6.02259e-006
Heightened Def Con from 6.02259e-006 to 6.02259e-006
Heightened Def Con from 6.02259e-006 to 6.02259e-006
Heightened Def Con from 6.02259e-006 to 6.02259e-006
Heightened Def Con from 6.02259e-006 +to 6.02259e-006
Heightened Def Con from 6.02259e-006 +to 6.02259e-006
Heightened Def Con from 6.02259e-006 to 6.02259e-006
Heightened Def Con from 6.02259e-006 ++to 6.02259e-006
Heightened Def Con from 6.02259e-006 to 6.02259e-006
Heightened Def Con from 6.02259e-006 to 6.02259e-006
Heightened Def Con from 6.02259e-006 to 6.02259e-006
Heightened Def Con from 6.02259e-006 to 6.02259e-006
Heightened Def Con from 6.02259e-006 to 6.02259e-006
Heightened Def Con from 6.02259e-006 +to 6.02259e-006
Heightened Def Con from 6.02259e-006 to 6.02259e-006
Heightened Def Con from 6.02259e-006 to 6.02259e-006
Heightened Def Con from 6.02259e-006 to 6.02259e-006
Heightened Def Con from 6.02259e-006 to 6.02259e-006
Heightened Def Con from 6.02259e-006 to 6.02259e-006
Heightened Def Con from 6.02259e-006 to 6.02259e-006
Heightened Def Con from 6.02259e-006 to 6.02259e-006
Heightened Def Con from 6.02259e-006 to 6.02259e-006
Heightened Def Con from 6.02259e-006 to 6.02259e-006
Heightened Def Con from 6.02259e-006 +++to 6.02259e-006
Heightened Def Con from 6.02259e-006 to 6.02259e-006
Heightened Def Con from 6.02259e-006 ++++to 6.02259e-006
Heightened Def Con from 6.02259e-006 ++++to 6.02259e-006
Heightened Def Con from 6.02259e-006 ++to 6.02259e-006
Heightened Def Con from 6.02259e-006 +to 6.02259e-006
Heightened Def Con from 6.02259e-006 ++to 6.02259e-006
Heightened Def Con from 6.02259e-006 to 6.02259e-006
Heightened Def Con from 6.02259e-006 to 6.02259e-006
Heightened Def Con from 6.02259e-006 to 6.02259e-006
Heightened Def Con from 6.02259e-006 ++to 6.02259e-006
Heightened Def Con from 6.02259e-006 ++++++to 6.02259e-006
Heightened Def Con from 6.02259e-006 to 6.02259e-006
Heightened Def Con from 6.02259e-006 ++to 6.02259e-006
Heightened Def Con from 6.02259e-006 to 6.02259e-006
Heightened Def Con from 6.02259e-006 +to 6.02259e-006
Heightened Def Con from 6.02259e-006 to 6.02259e-006
Heightened Def Con from 6.02259e-006 to 6.02259e-006
Heightened Def Con from 6.02259e-006 to 6.02259e-006
Heightened Def Con from 6.02259e-006 ++++to 6.02259e-006
Heightened Def Con from 6.02259e-006 ++to 6.02259e-006
Heightened Def Con from 6.02259e-006 to 6.02259e-006
Heightened Def Con from 6.02259e-006 to 6.02259e-006
Heightened Def Con from 6.02259e-006 to 6.02259e-006
Heightened Def Con from 6.02259e-006 to 6.02259e-006
Heightened Def Con from 6.02259e-006 to 6.02259e-006
Heightened Def Con from 6.02259e-006 to 6.02259e-006
Heightened Def Con from 6.02259e-006 to 6.02259e-006
Heightened Def Con from 6.02259e-006 to 6.02259e-006
Heightened Def Con from 6.02259e-006 +to 6.02259e-006
Heightened Def Con from 6.02259e-006 +to 6.02259e-006
Heightened Def Con from 6.02259e-006 to 6.02259e-006
Heightened Def Con from 6.02259e-006 to 6.02259e-006
Heightened Def Con from 6.02259e-006 to 6.02259e-006
Heightened Def Con from 6.02259e-006 +to 6.02259e-006
Heightened Def Con from 6.02259e-006 to 6.02259e-006
Heightened Def Con from 6.02259e-006 +++++to 6.02259e-006
Heightened Def Con from 6.02259e-006 +to 6.02259e-006
Heightened Def Con from 6.02259e-006 +to 6.02259e-006
Heightened Def Con from 6.02259e-006 to 6.02259e-006
Heightened Def Con from 6.02259e-006 ++to 6.02259e-006
Heightened Def Con from 6.02259e-006 to 6.02259e-006
Heightened Def Con from 6.02259e-006 to 6.02259e-006
Heightened Def Con from 6.02259e-006 ++to 6.02259e-006
Heightened Def Con from 6.02259e-006 to 6.02259e-006
Heightened Def Con from 6.02259e-006 to 6.02259e-006
Heightened Def Con from 6.02259e-006 to 6.02259e-006
Heightened Def Con from 6.02259e-006 ++++to 6.02259e-006
Heightened Def Con from 6.02259e-006 ++to 6.02259e-006
Heightened Def Con from 6.02259e-006 +to 6.02259e-006
Heightened Def Con from 6.02259e-006 to 6.02259e-006
Heightened Def Con from 6.02259e-006 to 6.02259e-006
Heightened Def Con from 6.02259e-006 to 6.02259e-006
Heightened Def Con from 6.02259e-006 +to 6.02259e-006
Heightened Def Con from 6.02259e-006 to 6.02259e-006
Heightened Def Con from 6.02259e-006 to 6.02259e-006
Heightened Def Con from 6.02259e-006 to 6.02259e-006
Heightened Def Con from 6.02259e-006 to 6.02259e-006
Heightened Def Con from 6.02259e-006 +to 6.02259e-006
Heightened Def Con from 6.02259e-006 ++to 6.02259e-006
Heightened Def Con from 6.02259e-006 to 6.02259e-006
Heightened Def Con from 6.02259e-006 +to 6.02259e-006
Heightened Def Con from 6.02259e-006 +to 6.02259e-006
Heightened Def Con from 6.02259e-006 to 6.02259e-006
Heightened Def Con from 6.02259e-006 to 6.02259e-006
Heightened Def Con from 6.02259e-006 to 6.02259e-006
Heightened Def Con from 6.02259e-006 +to 6.02259e-006
Heightened Def Con from 6.02259e-006 to 6.02259e-006
Heightened Def Con from 6.02259e-006 to 6.02259e-006
Heightened Def Con from 6.02259e-006 +++++to 6.02259e-006
Heightened Def Con from 6.02259e-006 to 6.02259e-006
Heightened Def Con from 6.02259e-006 to 6.02259e-006
Heightened Def Con from 6.02259e-006 to 6.02259e-006
Heightened Def Con from 6.02259e-006 +to 6.02259e-006
Heightened Def Con from 6.02259e-006 to 6.02259e-006
Heightened Def Con from 6.02259e-006 +to 6.02259e-006
Heightened Def Con from 6.02259e-006 to 6.02259e-006
Heightened Def Con from 6.02259e-006 to 6.02259e-006
Heightened Def Con from 6.02259e-006 to 6.02259e-006
Heightened Def Con from 6.02259e-006 to 6.02259e-006
Heightened Def Con from 6.02259e-006 to 6.02259e-006
Heightened Def Con from 6.02259e-006 +to 6.02259e-006
Heightened Def Con from 6.02259e-006 +to 6.02259e-006
Heightened Def Con from 6.02259e-006 +to 6.02259e-006
Heightened Def Con from 6.02259e-006 to 6.02259e-006
Heightened Def Con from 6.02259e-006 to 6.02259e-006
Heightened Def Con from 6.02259e-006 to 6.02259e-006
Heightened Def Con from 6.02259e-006 to 6.02259e-006
Heightened Def Con from 6.02259e-006 to 6.02259e-006
Heightened Def Con from 6.02259e-006 +++to 6.02259e-006
Heightened Def Con from 6.02259e-006 +to 6.02259e-006
Heightened Def Con from 6.02259e-006 +to 6.02259e-006
Heightened Def Con from 6.02259e-006 to 6.02259e-006
Heightened Def Con from 6.02259e-006 to 6.02259e-006
Heightened Def Con from 6.02259e-006 to 6.02259e-006
Heightened Def Con from 6.02259e-006 to 6.02259e-006
Heightened Def Con from 6.02259e-006 +to 6.02259e-006
Heightened Def Con from 6.02259e-006 to 6.02259e-006
Heightened Def Con from 6.02259e-006 to 6.02259e-006
Heightened Def Con from 6.02259e-006 to 6.02259e-006
Heightened Def Con from 6.02259e-006 to 6.02259e-006
Heightened Def Con from 6.02259e-006 to 6.02259e-006
Heightened Def Con from 6.02259e-006 to 6.02259e-006
Heightened Def Con from 6.02259e-006 to 6.02259e-006
Heightened Def Con from 6.02259e-006 ++to 6.02259e-006
Heightened Def Con from 6.02259e-006 +to 6.02259e-006
Heightened Def Con from 6.02259e-006 to 6.02259e-006
Heightened Def Con from 6.02259e-006 ++to 6.02259e-006
Heightened Def Con from 6.02259e-006 to 6.02259e-006
Heightened Def Con from 6.02259e-006 ++to 6.02259e-006
Heightened Def Con from 6.02259e-006 ++to 6.02259e-006
Heightened Def Con from 6.02259e-006 to 6.02259e-006
Heightened Def Con from 6.02259e-006 to 6.02259e-006
Heightened Def Con from 6.02259e-006 to 6.02259e-006
Heightened Def Con from 6.02259e-006 ++to 6.02259e-006
Heightened Def Con from 6.02259e-006 +to 6.02259e-006
Heightened Def Con from 6.02259e-006 to 6.02259e-006
Heightened Def Con from 6.02259e-006 to 6.02259e-006
Heightened Def Con from 6.02259e-006 to 6.02259e-006
Heightened Def Con from 6.02259e-006 to 6.02259e-006
Heightened Def Con from 6.02259e-006 to 6.02259e-006
Heightened Def Con from 6.02259e-006 +to 6.02259e-006
Heightened Def Con from 6.02259e-006 to 6.02259e-006
Heightened Def Con from 6.02259e-006 +to 6.02259e-006
Heightened Def Con from 6.02259e-006 to 6.02259e-006
Heightened Def Con from 6.02259e-006 to 6.02259e-006
Heightened Def Con from 6.02259e-006 to 6.02259e-006
Heightened Def Con from 6.02259e-006 +++to 6.02259e-006
Heightened Def Con from 6.02259e-006 +++to 6.02259e-006
Heightened Def Con from 6.02259e-006 to 6.02259e-006
Heightened Def Con from 6.02259e-006 +to 6.02259e-006
Heightened Def Con from 6.02259e-006 to 6.02259e-006
Heightened Def Con from 6.02259e-006 to 6.02259e-006
Heightened Def Con from 6.02259e-006 to 6.02259e-006
Heightened Def Con from 6.02259e-006 to 6.02259e-006
Heightened Def Con from 6.02259e-006 ++to 6.02259e-006
Heightened Def Con from 6.02259e-006 ++to 6.02259e-006
Heightened Def Con from 6.02259e-006 to 6.02259e-006
Heightened Def Con from 6.02259e-006 ++to 6.02259e-006
Heightened Def Con from 6.02259e-006 +to 6.02259e-006
Heightened Def Con from 6.02259e-006 +to 6.02259e-006
Heightened Def Con from 6.02259e-006 +++to 6.02259e-006
Heightened Def Con from 6.02259e-006 to 6.02259e-006
Heightened Def Con from 6.02259e-006 to 6.02259e-006
Heightened Def Con from 6.02259e-006 +to 6.02259e-006
Heightened Def Con from 6.02259e-006 to 6.02259e-006
Heightened Def Con from 6.02259e-006 to 6.02259e-006
Heightened Def Con from 6.02259e-006 to 6.02259e-006
Heightened Def Con from 6.02259e-006 to 6.02259e-006
Heightened Def Con from 6.02259e-006 to 6.02259e-006
Heightened Def Con from 6.02259e-006 to 6.02259e-006
Heightened Def Con from 6.02259e-006 ++++to 6.02259e-006
Heightened Def Con from 6.02259e-006 to 6.02259e-006
Heightened Def Con from 6.02259e-006 ++to 6.02259e-006
Heightened Def Con from 6.02259e-006 to 6.02259e-006
Heightened Def Con from 6.02259e-006 to 6.02259e-006
Heightened Def Con from 6.02259e-006 to 6.02259e-006
Heightened Def Con from 6.02259e-006 +++to 6.02259e-006
Heightened Def Con from 6.02259e-006 +to 6.02259e-006
Heightened Def Con from 6.02259e-006 ++to 6.02259e-006
Heightened Def Con from 6.02259e-006 +to 6.02259e-006
Heightened Def Con from 6.02259e-006 ++to 6.02259e-006
Heightened Def Con from 6.02259e-006 +to 6.02259e-006
Heightened Def Con from 6.02259e-006 to 6.02259e-006
Heightened Def Con from 6.02259e-006 +to 6.02259e-006
Heightened Def Con from 6.02259e-006 +to 6.02259e-006
Heightened Def Con from 6.02259e-006 to 6.02259e-006
Heightened Def Con from 6.02259e-006 ++to 6.02259e-006
Heightened Def Con from 6.02259e-006 ++to 6.02259e-006
Heightened Def Con from 6.02259e-006 to 6.02259e-006
Heightened Def Con from 6.02259e-006 +to 6.02259e-006
Heightened Def Con from 6.02259e-006 to 6.02259e-006
Heightened Def Con from 6.02259e-006 to 6.02259e-006
Heightened Def Con from 6.02259e-006 to 6.02259e-006
Heightened Def Con from 6.02259e-006 +to 6.02259e-006
Heightened Def Con from 6.02259e-006 ++to 6.02259e-006
Heightened Def Con from 6.02259e-006 to 6.02259e-006
Heightened Def Con from 6.02259e-006 to 6.02259e-006
Heightened Def Con from 6.02259e-006 to 6.02259e-006
Heightened Def Con from 6.02259e-006 to 6.02259e-006
Heightened Def Con from 6.02259e-006 +to 6.02259e-006
Heightened Def Con from 6.02259e-006 to 6.02259e-006
Heightened Def Con from 6.02259e-006 to 6.02259e-006
Heightened Def Con from 6.02259e-006 ++to 6.02259e-006
Heightened Def Con from 6.02259e-006 to 6.02259e-006
Heightened Def Con from 6.02259e-006 to 6.02259e-006
Heightened Def Con from 6.02259e-006 +to 6.02259e-006
Heightened Def Con from 6.02259e-006 +to 6.02259e-006
Heightened Def Con from 6.02259e-006 to 6.02259e-006
Heightened Def Con from 6.02259e-006 to 6.02259e-006
Heightened Def Con from 6.02259e-006 to 6.02259e-006
Heightened Def Con from 6.02259e-006 ++to 6.02259e-006
Heightened Def Con from 6.02259e-006 +to 6.02259e-006
Heightened Def Con from 6.02259e-006 to 6.02259e-006
Heightened Def Con from 6.02259e-006 to 6.02259e-006
Heightened Def Con from 6.02259e-006 to 6.02259e-006
Heightened Def Con from 6.02259e-006 to 6.02259e-006
Heightened Def Con from 6.02259e-006 to 6.02259e-006
Heightened Def Con from 6.02259e-006 +to 6.02259e-006
Heightened Def Con from 6.02259e-006 to 6.02259e-006
Heightened Def Con from 6.02259e-006 ++to 6.02259e-006
Heightened Def Con from 6.02259e-006 +to 6.02259e-006
Heightened Def Con from 6.02259e-006 ++to 6.02259e-006
Heightened Def Con from 6.02259e-006 to 6.02259e-006
Heightened Def Con from 6.02259e-006 +to 6.02259e-006
Heightened Def Con from 6.02259e-006 +to 6.02259e-006
Heightened Def Con from 6.02259e-006 +++to 6.02259e-006
Heightened Def Con from 6.02259e-006 +to 6.02259e-006
Heightened Def Con from 6.02259e-006 to 6.02259e-006
Heightened Def Con from 6.02259e-006 to 6.02259e-006
Heightened Def Con from 6.02259e-006 to 6.02259e-006
Heightened Def Con from 6.02259e-006 to 6.02259e-006
Heightened Def Con from 6.02259e-006 to 6.02259e-006
Heightened Def Con from 6.02259e-006 to 6.02259e-006
Heightened Def Con from 6.02259e-006 to 6.02259e-006
Heightened Def Con from 6.02259e-006 +to 6.02259e-006
Heightened Def Con from 6.02259e-006 to 6.02259e-006
Heightened Def Con from 6.02259e-006 to 6.02259e-006
Heightened Def Con from 6.02259e-006 ++to 6.02259e-006
Heightened Def Con from 6.02259e-006 to 6.02259e-006
Heightened Def Con from 6.02259e-006 +++to 6.02259e-006
Heightened Def Con from 6.02259e-006 to 6.02259e-006
Heightened Def Con from 6.02259e-006 to 6.02259e-006
Heightened Def Con from 6.02259e-006 +to 6.02259e-006
Heightened Def Con from 6.02259e-006 to 6.02259e-006
Heightened Def Con from 6.02259e-006 to 6.02259e-006
Heightened Def Con from 6.02259e-006 to 6.02259e-006
Heightened Def Con from 6.02259e-006 to 6.02259e-006
Heightened Def Con from 6.02259e-006 +to 6.02259e-006
Heightened Def Con from 6.02259e-006 to 6.02259e-006
Heightened Def Con from 6.02259e-006 to 6.02259e-006
Heightened Def Con from 6.02259e-006 to 6.02259e-006
Heightened Def Con from 6.02259e-006 to 6.02259e-006
Heightened Def Con from 6.02259e-006 to 6.02259e-006
Heightened Def Con from 6.02259e-006 to 6.02259e-006
Heightened Def Con from 6.02259e-006 to 6.02259e-006
Heightened Def Con from 6.02259e-006 to 6.02259e-006
Heightened Def Con from 6.02259e-006 to 6.02259e-006
Heightened Def Con from 6.02259e-006 to 6.02259e-006
Heightened Def Con from 6.02259e-006 to 6.02259e-006
Heightened Def Con from 6.02259e-006 to 6.02259e-006
Heightened Def Con from 6.02259e-006 to 6.02259e-006
Heightened Def Con from 6.02259e-006 to 6.02259e-006
Heightened Def Con from 6.02259e-006 to 6.02259e-006
Heightened Def Con from 6.02259e-006 to 6.02259e-006
Heightened Def Con from 6.02259e-006 to 6.02259e-006
Heightened Def Con from 6.02259e-006 to 6.02259e-006
Heightened Def Con from 6.02259e-006 to 6.02259e-006
Heightened Def Con from 6.02259e-006 to 6.02259e-006
Heightened Def Con from 6.02259e-006 ++++to 6.02259e-006
Heightened Def Con from 6.02259e-006 to 6.02259e-006
Heightened Def Con from 6.02259e-006 to 6.02259e-006
Heightened Def Con from 6.02259e-006 to 6.02259e-006
Heightened Def Con from 6.02259e-006 +to 6.02259e-006
Heightened Def Con from 6.02259e-006 ++to 6.02259e-006
Heightened Def Con from 6.02259e-006 ++++to 6.02259e-006
Heightened Def Con from 6.02259e-006 ++to 6.02259e-006
Heightened Def Con from 6.02259e-006 to 6.02259e-006
Heightened Def Con from 6.02259e-006 to 6.02259e-006
Heightened Def Con from 6.02259e-006 +to 6.02259e-006
Heightened Def Con from 6.02259e-006 to 6.02259e-006
Heightened Def Con from 6.02259e-006 to 6.02259e-006
Heightened Def Con from 6.02259e-006 to 6.02259e-006
Heightened Def Con from 6.02259e-006 ++to 6.02259e-006
Heightened Def Con from 6.02259e-006 +to 6.02259e-006
Heightened Def Con from 6.02259e-006 +to 6.02259e-006
Heightened Def Con from 6.02259e-006 +to 6.02259e-006
Heightened Def Con from 6.02259e-006 +to 6.02259e-006
Heightened Def Con from 6.02259e-006 to 6.02259e-006
Heightened Def Con from 6.02259e-006 +to 6.02259e-006
Heightened Def Con from 6.02259e-006 +++++to 6.02259e-006
Heightened Def Con from 6.02259e-006 +to 6.02259e-006
Heightened Def Con from 6.02259e-006 to 6.02259e-006
Heightened Def Con from 6.02259e-006 +to 6.02259e-006
Heightened Def Con from 6.02259e-006 to 6.02259e-006
Heightened Def Con from 6.02259e-006 to 6.02259e-006
Heightened Def Con from 6.02259e-006 to 6.02259e-006
Heightened Def Con from 6.02259e-006 +to 6.02259e-006
Heightened Def Con from 6.02259e-006 to 6.02259e-006
Heightened Def Con from 6.02259e-006 to 6.02259e-006
Heightened Def Con from 6.02259e-006 to 6.02259e-006
Heightened Def Con from 6.02259e-006 to 6.02259e-006
Heightened Def Con from 6.02259e-006 to 6.02259e-006
Heightened Def Con from 6.02259e-006 +++to 6.02259e-006
Heightened Def Con from 6.02259e-006 to 6.02259e-006
Heightened Def Con from 6.02259e-006 ++to 6.02259e-006
Heightened Def Con from 6.02259e-006 to 6.02259e-006
Heightened Def Con from 6.02259e-006 ++to 6.02259e-006
Heightened Def Con from 6.02259e-006 ++++to 6.02259e-006
Heightened Def Con from 6.02259e-006 +to 6.02259e-006
Heightened Def Con from 6.02259e-006 to 6.02259e-006
Heightened Def Con from 6.02259e-006 +to 6.02259e-006
Heightened Def Con from 6.02259e-006 to 6.02259e-006
Heightened Def Con from 6.02259e-006 ++++to 6.02259e-006
Heightened Def Con from 6.02259e-006 to 6.02259e-006
Heightened Def Con from 6.02259e-006 ++to 6.02259e-006
Heightened Def Con from 6.02259e-006 to 6.02259e-006
Heightened Def Con from 6.02259e-006 to 6.02259e-006
Heightened Def Con from 6.02259e-006 +to 6.02259e-006
Heightened Def Con from 6.02259e-006 to 6.02259e-006
Heightened Def Con from 6.02259e-006 to 6.02259e-006
Heightened Def Con from 6.02259e-006 to 6.02259e-006
Heightened Def Con from 6.02259e-006 to 6.02259e-006
Heightened Def Con from 6.02259e-006 ++++to 6.02259e-006
Heightened Def Con from 6.02259e-006 to 6.02259e-006
Heightened Def Con from 6.02259e-006 +to 6.02259e-006
Heightened Def Con from 6.02259e-006 to 6.02259e-006
Heightened Def Con from 6.02259e-006 +to 6.02259e-006
Heightened Def Con from 6.02259e-006 to 6.02259e-006
Heightened Def Con from 6.02259e-006 to 6.02259e-006
Heightened Def Con from 6.02259e-006 to 6.02259e-006
Heightened Def Con from 6.02259e-006 +++to 6.02259e-006
Heightened Def Con from 6.02259e-006 +++to 6.02259e-006
Heightened Def Con from 6.02259e-006 to 6.02259e-006
Heightened Def Con from 6.02259e-006 +++to 6.02259e-006
Heightened Def Con from 6.02259e-006 +++++++to 6.02259e-006
Heightened Def Con from 6.02259e-006 to 6.02259e-006
Heightened Def Con from 6.02259e-006 +to 6.02259e-006
Heightened Def Con from 6.02259e-006 ++to 6.02259e-006
Heightened Def Con from 6.02259e-006 to 6.02259e-006
Heightened Def Con from 6.02259e-006 +to 6.02259e-006
Heightened Def Con from 6.02259e-006 +++++to 6.02259e-006
Heightened Def Con from 6.02259e-006 +to 6.02259e-006
Heightened Def Con from 6.02259e-006 +++++++to 6.02259e-006
Heightened Def Con from 6.02259e-006 to 6.02259e-006
Heightened Def Con from 6.02259e-006 ++++to 6.02259e-006
Heightened Def Con from 6.02259e-006 to 6.02259e-006
Heightened Def Con from 6.02259e-006 to 6.02259e-006
Heightened Def Con from 6.02259e-006 ++to 6.02259e-006
Heightened Def Con from 6.02259e-006 +++to 6.02259e-006
Heightened Def Con from 6.02259e-006 to 6.02259e-006
Heightened Def Con from 6.02259e-006 to 6.02259e-006
Heightened Def Con from 6.02259e-006 +to 6.02259e-006
Heightened Def Con from 6.02259e-006 to 6.02259e-006
Heightened Def Con from 6.02259e-006 to 6.02259e-006
Heightened Def Con from 6.02259e-006 +to 6.02259e-006
Heightened Def Con from 6.02259e-006 ++to 6.02259e-006
Heightened Def Con from 6.02259e-006 to 6.02259e-006
Heightened Def Con from 6.02259e-006 to 6.02259e-006
Heightened Def Con from 6.02259e-006 to 6.02259e-006
Heightened Def Con from 6.02259e-006 to 6.02259e-006
Heightened Def Con from 6.02259e-006 +to 6.02259e-006
Heightened Def Con from 6.02259e-006 +to 6.02259e-006
Heightened Def Con from 6.02259e-006 +to 6.02259e-006
Heightened Def Con from 6.02259e-006 to 6.02259e-006
Heightened Def Con from 6.02259e-006 to 6.02259e-006
Heightened Def Con from 6.02259e-006 +to 6.02259e-006
Heightened Def Con from 6.02259e-006 +to 6.02259e-006
Heightened Def Con from 6.02259e-006 to 6.02259e-006
Heightened Def Con from 6.02259e-006 to 6.02259e-006
Heightened Def Con from 6.02259e-006 to 6.02259e-006
Heightened Def Con from 6.02259e-006 to 6.02259e-006
Heightened Def Con from 6.02259e-006 +to 6.02259e-006
Heightened Def Con from 6.02259e-006 ++to 6.02259e-006
Heightened Def Con from 6.02259e-006 to 6.02259e-006
Heightened Def Con from 6.02259e-006 to 6.02259e-006
Heightened Def Con from 6.02259e-006 to 6.02259e-006
Heightened Def Con from 6.02259e-006 to 6.02259e-006
Heightened Def Con from 6.02259e-006 +to 6.02259e-006
Heightened Def Con from 6.02259e-006 to 6.02259e-006
Heightened Def Con from 6.02259e-006 to 6.02259e-006
Heightened Def Con from 6.02259e-006 to 6.02259e-006
Heightened Def Con from 6.02259e-006 to 6.02259e-006
Heightened Def Con from 6.02259e-006 +to 6.02259e-006
Heightened Def Con from 6.02259e-006 +to 6.02259e-006
Heightened Def Con from 6.02259e-006 to 6.02259e-006
Heightened Def Con from 6.02259e-006 to 6.02259e-006
Heightened Def Con from 6.02259e-006 ++++to 6.02259e-006
Heightened Def Con from 6.02259e-006 +to 6.02259e-006
Heightened Def Con from 6.02259e-006 to 6.02259e-006
Heightened Def Con from 6.02259e-006 +to 6.02259e-006
Heightened Def Con from 6.02259e-006 +++++to 6.02259e-006
Heightened Def Con from 6.02259e-006 to 6.02259e-006
Heightened Def Con from 6.02259e-006 ++to 6.02259e-006
Heightened Def Con from 6.02259e-006 to 6.02259e-006
Heightened Def Con from 6.02259e-006 ++++++to 6.02259e-006
Heightened Def Con from 6.02259e-006 to 6.02259e-006
Heightened Def Con from 6.02259e-006 to 6.02259e-006
Heightened Def Con from 6.02259e-006 ++++to 6.02259e-006
Heightened Def Con from 6.02259e-006 to 6.02259e-006
Heightened Def Con from 6.02259e-006 to 6.02259e-006
Heightened Def Con from 6.02259e-006 +++to 6.02259e-006
Heightened Def Con from 6.02259e-006 to 6.02259e-006
Heightened Def Con from 6.02259e-006 to 6.02259e-006
Heightened Def Con from 6.02259e-006 to 6.02259e-006
Heightened Def Con from 6.02259e-006 to 6.02259e-006
Heightened Def Con from 6.02259e-006 to 6.02259e-006
Heightened Def Con from 6.02259e-006 to 6.02259e-006
Heightened Def Con from 6.02259e-006 to 6.02259e-006
Heightened Def Con from 6.02259e-006 +to 6.02259e-006
Heightened Def Con from 6.02259e-006 to 6.02259e-006
Heightened Def Con from 6.02259e-006 +to 6.02259e-006
Heightened Def Con from 6.02259e-006 to 6.02259e-006
Heightened Def Con from 6.02259e-006 to 6.02259e-006
Heightened Def Con from 6.02259e-006 +to 6.02259e-006
Heightened Def Con from 6.02259e-006 to 6.02259e-006
Heightened Def Con from 6.02259e-006 to 6.02259e-006
Heightened Def Con from 6.02259e-006 to 6.02259e-006
Heightened Def Con from 6.02259e-006 to 6.02259e-006
Heightened Def Con from 6.02259e-006 to 6.02259e-006
Heightened Def Con from 6.02259e-006 to 6.02259e-006
Heightened Def Con from 6.02259e-006 to 6.02259e-006
Heightened Def Con from 6.02259e-006 +to 6.02259e-006
Heightened Def Con from 6.02259e-006 +to 6.02259e-006
Heightened Def Con from 6.02259e-006 +to 6.02259e-006
Heightened Def Con from 6.02259e-006 to 6.02259e-006
Heightened Def Con from 6.02259e-006 to 6.02259e-006
Heightened Def Con from 6.02259e-006 to 6.02259e-006
Heightened Def Con from 6.02259e-006 to 6.02259e-006
Heightened Def Con from 6.02259e-006 to 6.02259e-006
Heightened Def Con from 6.02259e-006 to 6.02259e-006
Heightened Def Con from 6.02259e-006 to 6.02259e-006
Heightened Def Con from 6.02259e-006 to 6.02259e-006
Heightened Def Con from 6.02259e-006 to 6.02259e-006
Heightened Def Con from 6.02259e-006 to 6.02259e-006
Heightened Def Con from 6.02259e-006 to 6.02259e-006
Heightened Def Con from 6.02259e-006 to 6.02259e-006
Heightened Def Con from 6.02259e-006 to 6.02259e-006
Heightened Def Con from 6.02259e-006 to 6.02259e-006
Heightened Def Con from 6.02259e-006 +++to 6.02259e-006
Heightened Def Con from 6.02259e-006 +to 6.02259e-006
Heightened Def Con from 6.02259e-006 to 6.02259e-006
Heightened Def Con from 6.02259e-006 to 6.02259e-006
Heightened Def Con from 6.02259e-006 +to 6.02259e-006
Heightened Def Con from 6.02259e-006 to 6.02259e-006
Heightened Def Con from 6.02259e-006 +to 6.02259e-006
Heightened Def Con from 6.02259e-006 +to 6.02259e-006
Heightened Def Con from 6.02259e-006 +to 6.02259e-006
Heightened Def Con from 6.02259e-006 ++to 6.02259e-006
Heightened Def Con from 6.02259e-006 +++to 6.02259e-006
Heightened Def Con from 6.02259e-006 +++to 6.02259e-006
Heightened Def Con from 6.02259e-006 +to 6.02259e-006
Heightened Def Con from 6.02259e-006 to 6.02259e-006
Heightened Def Con from 6.02259e-006 +to 6.02259e-006
Heightened Def Con from 6.02259e-006 +to 6.02259e-006
Heightened Def Con from 6.02259e-006 to 6.02259e-006
Heightened Def Con from 6.02259e-006 to 6.02259e-006
Heightened Def Con from 6.02259e-006 to 6.02259e-006
Heightened Def Con from 6.02259e-006 +++++to 6.02259e-006
Heightened Def Con from 6.02259e-006 ++to 6.02259e-006
Heightened Def Con from 6.02259e-006 ++++to 6.02259e-006
Heightened Def Con from 6.02259e-006 to 6.02259e-006
Heightened Def Con from 6.02259e-006 ++to 6.02259e-006
Heightened Def Con from 6.02259e-006 to 6.02259e-006
Heightened Def Con from 6.02259e-006 ++++to 6.02259e-006
Heightened Def Con from 6.02259e-006 to 6.02259e-006
Heightened Def Con from 6.02259e-006 +to 6.02259e-006
Heightened Def Con from 6.02259e-006 to 6.02259e-006
Heightened Def Con from 6.02259e-006 +to 6.02259e-006
Heightened Def Con from 6.02259e-006 to 6.02259e-006
Heightened Def Con from 6.02259e-006 to 6.02259e-006
Heightened Def Con from 6.02259e-006 to 6.02259e-006
Heightened Def Con from 6.02259e-006 ++to 6.02259e-006
Heightened Def Con from 6.02259e-006 +++to 6.02259e-006
Heightened Def Con from 6.02259e-006 to 6.02259e-006
Heightened Def Con from 6.02259e-006 +to 6.02259e-006
Heightened Def Con from 6.02259e-006 to 6.02259e-006
Heightened Def Con from 6.02259e-006 to 6.02259e-006
Heightened Def Con from 6.02259e-006 ++to 6.02259e-006
Heightened Def Con from 6.02259e-006 to 6.02259e-006
Heightened Def Con from 6.02259e-006 +++to 6.02259e-006
Heightened Def Con from 6.02259e-006 to 6.02259e-006
Heightened Def Con from 6.02259e-006 to 6.02259e-006
Heightened Def Con from 6.02259e-006 to 6.02259e-006
Heightened Def Con from 6.02259e-006 to 6.02259e-006
Heightened Def Con from 6.02259e-006 +to 6.02259e-006
Heightened Def Con from 6.02259e-006 to 6.02259e-006
Heightened Def Con from 6.02259e-006 to 6.02259e-006
Heightened Def Con from 6.02259e-006 to 6.02259e-006
Heightened Def Con from 6.02259e-006 to 6.02259e-006
Heightened Def Con from 6.02259e-006 to 6.02259e-006
Heightened Def Con from 6.02259e-006 +++to 6.02259e-006
Heightened Def Con from 6.02259e-006 +to 6.02259e-006
Heightened Def Con from 6.02259e-006 +to 6.02259e-006
Heightened Def Con from 6.02259e-006 to 6.02259e-006
Heightened Def Con from 6.02259e-006 to 6.02259e-006
Heightened Def Con from 6.02259e-006 to 6.02259e-006
Heightened Def Con from 6.02259e-006 +to 6.02259e-006
Heightened Def Con from 6.02259e-006 ++to 6.02259e-006
Heightened Def Con from 6.02259e-006 to 6.02259e-006
Heightened Def Con from 6.02259e-006 ++to 6.02259e-006
Heightened Def Con from 6.02259e-006 to 6.02259e-006
Heightened Def Con from 6.02259e-006 to 6.02259e-006
Heightened Def Con from 6.02259e-006 +to 6.02259e-006
Heightened Def Con from 6.02259e-006 to 6.02259e-006
Heightened Def Con from 6.02259e-006 to 6.02259e-006
Heightened Def Con from 6.02259e-006 +++to 6.02259e-006
Heightened Def Con from 6.02259e-006 ++to 6.02259e-006
Heightened Def Con from 6.02259e-006 +to 6.02259e-006
Heightened Def Con from 6.02259e-006 +++++to 6.02259e-006
Heightened Def Con from 6.02259e-006 +to 6.02259e-006
Heightened Def Con from 6.02259e-006 +to 6.02259e-006
Heightened Def Con from 6.02259e-006 ++to 6.02259e-006
Heightened Def Con from 6.02259e-006 to 6.02259e-006
Heightened Def Con from 6.02259e-006 to 6.02259e-006
Heightened Def Con from 6.02259e-006 to 6.02259e-006
Heightened Def Con from 6.02259e-006 to 6.02259e-006
Heightened Def Con from 6.02259e-006 +++to 6.02259e-006
Heightened Def Con from 6.02259e-006 +to 6.02259e-006
Heightened Def Con from 6.02259e-006 to 6.02259e-006
Heightened Def Con from 6.02259e-006 to 6.02259e-006
Heightened Def Con from 6.02259e-006 ++to 6.02259e-006
Heightened Def Con from 6.02259e-006 ++to 6.02259e-006
Heightened Def Con from 6.02259e-006 to 6.02259e-006
Heightened Def Con from 6.02259e-006 to 6.02259e-006
Heightened Def Con from 6.02259e-006 to 6.02259e-006
Heightened Def Con from 6.02259e-006 to 6.02259e-006
Heightened Def Con from 6.02259e-006 to 6.02259e-006
Heightened Def Con from 6.02259e-006 ++to 6.02259e-006
Heightened Def Con from 6.02259e-006 ++to 6.02259e-006
Heightened Def Con from 6.02259e-006 ++to 6.02259e-006
Heightened Def Con from 6.02259e-006 to 6.02259e-006
Heightened Def Con from 6.02259e-006 +to 6.02259e-006
Heightened Def Con from 6.02259e-006 to 6.02259e-006
Heightened Def Con from 6.02259e-006 +to 6.02259e-006
Heightened Def Con from 6.02259e-006 +to 6.02259e-006
Heightened Def Con from 6.02259e-006 to 6.02259e-006
Heightened Def Con from 6.02259e-006 to 6.02259e-006
Heightened Def Con from 6.02259e-006 to 6.02259e-006
Heightened Def Con from 6.02259e-006 to 6.02259e-006
Heightened Def Con from 6.02259e-006 +to 6.02259e-006
Heightened Def Con from 6.02259e-006 +to 6.02259e-006
Heightened Def Con from 6.02259e-006 ++to 6.02259e-006
Heightened Def Con from 6.02259e-006 to 6.02259e-006
Heightened Def Con from 6.02259e-006 to 6.02259e-006
Heightened Def Con from 6.02259e-006 to 6.02259e-006
Heightened Def Con from 6.02259e-006 to 6.02259e-006
Heightened Def Con from 6.02259e-006 to 6.02259e-006
Heightened Def Con from 6.02259e-006 to 6.02259e-006
Heightened Def Con from 6.02259e-006 to 6.02259e-006
Heightened Def Con from 6.02259e-006 +++++to 6.02259e-006
Heightened Def Con from 6.02259e-006 to 6.02259e-006
Heightened Def Con from 6.02259e-006 to 6.02259e-006
Heightened Def Con from 6.02259e-006 to 6.02259e-006
Heightened Def Con from 6.02259e-006 to 6.02259e-006
Heightened Def Con from 6.02259e-006 +++to 6.02259e-006
Heightened Def Con from 6.02259e-006 ++++to 6.02259e-006
Heightened Def Con from 6.02259e-006 +to 6.02259e-006
Heightened Def Con from 6.02259e-006 ++to 6.02259e-006
Heightened Def Con from 6.02259e-006 to 6.02259e-006
Heightened Def Con from 6.02259e-006 +to 6.02259e-006
Heightened Def Con from 6.02259e-006 to 6.02259e-006
Heightened Def Con from 6.02259e-006 to 6.02259e-006
Heightened Def Con from 6.02259e-006 +to 6.02259e-006
Heightened Def Con from 6.02259e-006 +to 6.02259e-006
Heightened Def Con from 6.02259e-006 +to 6.02259e-006
Heightened Def Con from 6.02259e-006 +to 6.02259e-006
Heightened Def Con from 6.02259e-006 ++to 6.02259e-006
Heightened Def Con from 6.02259e-006 to 6.02259e-006
Heightened Def Con from 6.02259e-006 ++++++to 6.02259e-006
Heightened Def Con from 6.02259e-006 +to 6.02259e-006
Heightened Def Con from 6.02259e-006 to 6.02259e-006
Heightened Def Con from 6.02259e-006 +to 6.02259e-006
Heightened Def Con from 6.02259e-006 to 6.02259e-006
Heightened Def Con from 6.02259e-006 +++to 6.02259e-006
Heightened Def Con from 6.02259e-006 +to 6.02259e-006
Heightened Def Con from 6.02259e-006 +to 6.02259e-006
Heightened Def Con from 6.02259e-006 ++to 6.02259e-006
Heightened Def Con from 6.02259e-006 ++to 6.02259e-006
Heightened Def Con from 6.02259e-006 to 6.02259e-006
Heightened Def Con from 6.02259e-006 to 6.02259e-006
Heightened Def Con from 6.02259e-006 to 6.02259e-006
Heightened Def Con from 6.02259e-006 +++++to 6.02259e-006
Heightened Def Con from 6.02259e-006 to 6.02259e-006
Heightened Def Con from 6.02259e-006 to 6.02259e-006
Heightened Def Con from 6.02259e-006 to 6.02259e-006
Heightened Def Con from 6.02259e-006 +to 6.02259e-006
Heightened Def Con from 6.02259e-006 to 6.02259e-006
Heightened Def Con from 6.02259e-006 to 6.02259e-006
Heightened Def Con from 6.02259e-006 to 6.02259e-006
Heightened Def Con from 6.02259e-006 to 6.02259e-006
Heightened Def Con from 6.02259e-006 +to 6.02259e-006
Heightened Def Con from 6.02259e-006 +to 6.02259e-006
Heightened Def Con from 6.02259e-006 +++to 6.02259e-006
Heightened Def Con from 6.02259e-006 to 6.02259e-006
Heightened Def Con from 6.02259e-006 ++to 6.02259e-006
Heightened Def Con from 6.02259e-006 to 6.02259e-006
Heightened Def Con from 6.02259e-006 +to 6.02259e-006
Heightened Def Con from 6.02259e-006 to 6.02259e-006
Heightened Def Con from 6.02259e-006 to 6.02259e-006
Heightened Def Con from 6.02259e-006 to 6.02259e-006
Heightened Def Con from 6.02259e-006 +++to 6.02259e-006
Heightened Def Con from 6.02259e-006 to 6.02259e-006
Heightened Def Con from 6.02259e-006 +to 6.02259e-006
Heightened Def Con from 6.02259e-006 to 6.02259e-006
Heightened Def Con from 6.02259e-006 to 6.02259e-006
Heightened Def Con from 6.02259e-006 +++to 6.02259e-006
Heightened Def Con from 6.02259e-006 to 6.02259e-006
Heightened Def Con from 6.02259e-006 +to 6.02259e-006
Heightened Def Con from 6.02259e-006 to 6.02259e-006
Heightened Def Con from 6.02259e-006 to 6.02259e-006
Heightened Def Con from 6.02259e-006 ++to 6.02259e-006
Heightened Def Con from 6.02259e-006 to 6.02259e-006
Heightened Def Con from 6.02259e-006 +to 6.02259e-006
Heightened Def Con from 6.02259e-006 to 6.02259e-006
Heightened Def Con from 6.02259e-006 to 6.02259e-006
Heightened Def Con from 6.02259e-006 ++to 6.02259e-006
Heightened Def Con from 6.02259e-006 +++to 6.02259e-006
Heightened Def Con from 6.02259e-006 to 6.02259e-006
Heightened Def Con from 6.02259e-006 to 6.02259e-006
Heightened Def Con from 6.02259e-006 to 6.02259e-006
Heightened Def Con from 6.02259e-006 to 6.02259e-006
Heightened Def Con from 6.02259e-006 to 6.02259e-006
Heightened Def Con from 6.02259e-006 +to 6.02259e-006
Heightened Def Con from 6.02259e-006 to 6.02259e-006
Heightened Def Con from 6.02259e-006 to 6.02259e-006
Heightened Def Con from 6.02259e-006 ++++to 6.02259e-006
Heightened Def Con from 6.02259e-006 to 6.02259e-006
Heightened Def Con from 6.02259e-006 to 6.02259e-006
Heightened Def Con from 6.02259e-006 +to 6.02259e-006
Heightened Def Con from 6.02259e-006 ++to 6.02259e-006
Heightened Def Con from 6.02259e-006 to 6.02259e-006
Heightened Def Con from 6.02259e-006 to 6.02259e-006
Heightened Def Con from 6.02259e-006 +++to 6.02259e-006
Heightened Def Con from 6.02259e-006 to 6.02259e-006
Heightened Def Con from 6.02259e-006 to 6.02259e-006
Heightened Def Con from 6.02259e-006 +to 6.02259e-006
Heightened Def Con from 6.02259e-006 +to 6.02259e-006
Heightened Def Con from 6.02259e-006 to 6.02259e-006
Heightened Def Con from 6.02259e-006 to 6.02259e-006
Heightened Def Con from 6.02259e-006 to 6.02259e-006
Heightened Def Con from 6.02259e-006 +to 6.02259e-006
Heightened Def Con from 6.02259e-006 +to 6.02259e-006
Heightened Def Con from 6.02259e-006 +to 6.02259e-006
Heightened Def Con from 6.02259e-006 to 6.02259e-006
Heightened Def Con from 6.02259e-006 +to 6.02259e-006
Heightened Def Con from 6.02259e-006 +to 6.02259e-006
Heightened Def Con from 6.02259e-006 to 6.02259e-006
Heightened Def Con from 6.02259e-006 +to 6.02259e-006
Heightened Def Con from 6.02259e-006 to 6.02259e-006
Heightened Def Con from 6.02259e-006 to 6.02259e-006
Heightened Def Con from 6.02259e-006 to 6.02259e-006
Heightened Def Con from 6.02259e-006 to 6.02259e-006
Heightened Def Con from 6.02259e-006 to 6.02259e-006
Heightened Def Con from 6.02259e-006 +to 6.02259e-006
Heightened Def Con from 6.02259e-006 ++to 6.02259e-006
Heightened Def Con from 6.02259e-006 to 6.02259e-006
Heightened Def Con from 6.02259e-006 ++++++to 6.02259e-006
Heightened Def Con from 6.02259e-006 to 6.02259e-006
Heightened Def Con from 6.02259e-006 to 6.02259e-006
Heightened Def Con from 6.02259e-006 ++to 6.02259e-006
Heightened Def Con from 6.02259e-006 to 6.02259e-006
Heightened Def Con from 6.02259e-006 ++to 6.02259e-006
Heightened Def Con from 6.02259e-006 +to 6.02259e-006
Heightened Def Con from 6.02259e-006 +++to 6.02259e-006
Heightened Def Con from 6.02259e-006 +to 6.02259e-006
Heightened Def Con from 6.02259e-006 +++to 6.02259e-006
Heightened Def Con from 6.02259e-006 ++++++to 6.02259e-006
Heightened Def Con from 6.02259e-006 +to 6.02259e-006
Heightened Def Con from 6.02259e-006 to 6.02259e-006
Heightened Def Con from 6.02259e-006 +to 6.02259e-006
Heightened Def Con from 6.02259e-006 to 6.02259e-006
Heightened Def Con from 6.02259e-006 to 6.02259e-006
Heightened Def Con from 6.02259e-006 to 6.02259e-006
Heightened Def Con from 6.02259e-006 to 6.02259e-006
Heightened Def Con from 6.02259e-006 to 6.02259e-006
Heightened Def Con from 6.02259e-006 to 6.02259e-006
Heightened Def Con from 6.02259e-006 to 6.02259e-006
Heightened Def Con from 6.02259e-006 to 6.02259e-006
Heightened Def Con from 6.02259e-006 ++to 6.02259e-006
Heightened Def Con from 6.02259e-006 ++to 6.02259e-006
Heightened Def Con from 6.02259e-006 to 6.02259e-006
Heightened Def Con from 6.02259e-006 to 6.02259e-006
Heightened Def Con from 6.02259e-006 to 6.02259e-006
Heightened Def Con from 6.02259e-006 to 6.02259e-006
Heightened Def Con from 6.02259e-006 to 6.02259e-006
Heightened Def Con from 6.02259e-006 to 6.02259e-006
Heightened Def Con from 6.02259e-006 to 6.02259e-006
Heightened Def Con from 6.02259e-006 +to 6.02259e-006
Heightened Def Con from 6.02259e-006 to 6.02259e-006
Heightened Def Con from 6.02259e-006 to 6.02259e-006
Heightened Def Con from 6.02259e-006 +to 6.02259e-006
Heightened Def Con from 6.02259e-006 to 6.02259e-006
Heightened Def Con from 6.02259e-006 +to 6.02259e-006
Heightened Def Con from 6.02259e-006 +to 6.02259e-006
Heightened Def Con from 6.02259e-006 to 6.02259e-006
Heightened Def Con from 6.02259e-006 to 6.02259e-006
Heightened Def Con from 6.02259e-006 to 6.02259e-006
Heightened Def Con from 6.02259e-006 to 6.02259e-006
Heightened Def Con from 6.02259e-006 to 6.02259e-006
Heightened Def Con from 6.02259e-006 to 6.02259e-006
Heightened Def Con from 6.02259e-006 to 6.02259e-006
Heightened Def Con from 6.02259e-006 to 6.02259e-006
Heightened Def Con from 6.02259e-006 to 6.02259e-006
Heightened Def Con from 6.02259e-006 to 6.02259e-006
Heightened Def Con from 6.02259e-006 to 6.02259e-006
Heightened Def Con from 6.02259e-006 +to 6.02259e-006
Heightened Def Con from 6.02259e-006 ++++to 6.02259e-006
Heightened Def Con from 6.02259e-006 to 6.02259e-006
Heightened Def Con from 6.02259e-006 to 6.02259e-006
Heightened Def Con from 6.02259e-006 to 6.02259e-006
Heightened Def Con from 6.02259e-006 to 6.02259e-006
Heightened Def Con from 6.02259e-006 +to 6.02259e-006
Heightened Def Con from 6.02259e-006 +to 6.02259e-006
Heightened Def Con from 6.02259e-006 +to 6.02259e-006
Heightened Def Con from 6.02259e-006 ++++to 6.02259e-006
Heightened Def Con from 6.02259e-006 ++to 6.02259e-006
Heightened Def Con from 6.02259e-006 to 6.02259e-006
Heightened Def Con from 6.02259e-006 to 6.02259e-006
Heightened Def Con from 6.02259e-006 to 6.02259e-006
Heightened Def Con from 6.02259e-006 +to 6.02259e-006
Heightened Def Con from 6.02259e-006 +to 6.02259e-006
Heightened Def Con from 6.02259e-006 +++to 6.02259e-006
Heightened Def Con from 6.02259e-006 +to 6.02259e-006
Heightened Def Con from 6.02259e-006 ++to 6.02259e-006
Heightened Def Con from 6.02259e-006 to 6.02259e-006
Heightened Def Con from 6.02259e-006 +to 6.02259e-006
Heightened Def Con from 6.02259e-006 to 6.02259e-006
Heightened Def Con from 6.02259e-006 +++to 6.02259e-006
Heightened Def Con from 6.02259e-006 ++++to 6.02259e-006
Heightened Def Con from 6.02259e-006 to 6.02259e-006
Heightened Def Con from 6.02259e-006 to 6.02259e-006
Heightened Def Con from 6.02259e-006 to 6.02259e-006
Heightened Def Con from 6.02259e-006 to 6.02259e-006
Heightened Def Con from 6.02259e-006 to 6.02259e-006
Heightened Def Con from 6.02259e-006 ++to 6.02259e-006
Heightened Def Con from 6.02259e-006 to 6.02259e-006
Heightened Def Con from 6.02259e-006 to 6.02259e-006
Heightened Def Con from 6.02259e-006 +to 6.02259e-006
Heightened Def Con from 6.02259e-006 to 6.02259e-006
Heightened Def Con from 6.02259e-006 to 6.02259e-006
Heightened Def Con from 6.02259e-006 +to 6.02259e-006
Heightened Def Con from 6.02259e-006 +to 6.02259e-006
Heightened Def Con from 6.02259e-006 +to 6.02259e-006
Heightened Def Con from 6.02259e-006 to 6.02259e-006
Heightened Def Con from 6.02259e-006 to 6.02259e-006
Heightened Def Con from 6.02259e-006 +to 6.02259e-006
Heightened Def Con from 6.02259e-006 to 6.02259e-006
Heightened Def Con from 6.02259e-006 +to 6.02259e-006
Heightened Def Con from 6.02259e-006 to 6.02259e-006
Heightened Def Con from 6.02259e-006 to 6.02259e-006
Heightened Def Con from 6.02259e-006 to 6.02259e-006
Heightened Def Con from 6.02259e-006 to 6.02259e-006
Heightened Def Con from 6.02259e-006 to 6.02259e-006
Heightened Def Con from 6.02259e-006 to 6.02259e-006
Heightened Def Con from 6.02259e-006 +to 6.02259e-006
Heightened Def Con from 6.02259e-006 to 6.02259e-006
Heightened Def Con from 6.02259e-006 to 6.02259e-006
Heightened Def Con from 6.02259e-006 to 6.02259e-006
Heightened Def Con from 6.02259e-006 to 6.02259e-006
Heightened Def Con from 6.02259e-006 to 6.02259e-006
Heightened Def Con from 6.02259e-006 ++++to 6.02259e-006
Heightened Def Con from 6.02259e-006 +++to 6.02259e-006
Heightened Def Con from 6.02259e-006 to 6.02259e-006
Heightened Def Con from 6.02259e-006 to 6.02259e-006
Heightened Def Con from 6.02259e-006 to 6.02259e-006
Heightened Def Con from 6.02259e-006 ++to 6.02259e-006
Heightened Def Con from 6.02259e-006 ++to 6.02259e-006
Heightened Def Con from 6.02259e-006 to 6.02259e-006
Heightened Def Con from 6.02259e-006 to 6.02259e-006
Heightened Def Con from 6.02259e-006 to 6.02259e-006
Heightened Def Con from 6.02259e-006 to 6.02259e-006
Heightened Def Con from 6.02259e-006 ++++to 6.02259e-006
Heightened Def Con from 6.02259e-006 to 6.02259e-006
Heightened Def Con from 6.02259e-006 to 6.02259e-006
Heightened Def Con from 6.02259e-006 to 6.02259e-006
Heightened Def Con from 6.02259e-006 +to 6.02259e-006
Heightened Def Con from 6.02259e-006 to 6.02259e-006
Heightened Def Con from 6.02259e-006 ++to 6.02259e-006
Heightened Def Con from 6.02259e-006 to 6.02259e-006
Heightened Def Con from 6.02259e-006 to 6.02259e-006
Heightened Def Con from 6.02259e-006 ++to 6.02259e-006
Heightened Def Con from 6.02259e-006 to 6.02259e-006
Heightened Def Con from 6.02259e-006 to 6.02259e-006
Heightened Def Con from 6.02259e-006 to 6.02259e-006
Heightened Def Con from 6.02259e-006 +to 6.02259e-006
Heightened Def Con from 6.02259e-006 +++++to 6.02259e-006
Heightened Def Con from 6.02259e-006 +to 6.02259e-006
Heightened Def Con from 6.02259e-006 to 6.02259e-006
Heightened Def Con from 6.02259e-006 to 6.02259e-006
Heightened Def Con from 6.02259e-006 to 6.02259e-006
Heightened Def Con from 6.02259e-006 ++to 6.02259e-006
Heightened Def Con from 6.02259e-006 ++++to 6.02259e-006
Heightened Def Con from 6.02259e-006 to 6.02259e-006
Heightened Def Con from 6.02259e-006 to 6.02259e-006
Heightened Def Con from 6.02259e-006 to 6.02259e-006
Heightened Def Con from 6.02259e-006 to 6.02259e-006
Heightened Def Con from 6.02259e-006 +++++to 6.02259e-006
Heightened Def Con from 6.02259e-006 to 6.02259e-006
Heightened Def Con from 6.02259e-006 to 6.02259e-006
Heightened Def Con from 6.02259e-006 to 6.02259e-006
Heightened Def Con from 6.02259e-006 to 6.02259e-006
Heightened Def Con from 6.02259e-006 to 6.02259e-006
Heightened Def Con from 6.02259e-006 ++to 6.02259e-006
Heightened Def Con from 6.02259e-006 ++++to 6.02259e-006
Heightened Def Con from 6.02259e-006 +to 6.02259e-006
Heightened Def Con from 6.02259e-006 +to 6.02259e-006
Heightened Def Con from 6.02259e-006 +to 6.02259e-006
Heightened Def Con from 6.02259e-006 ++to 6.02259e-006
Heightened Def Con from 6.02259e-006 to 6.02259e-006
Heightened Def Con from 6.02259e-006 to 6.02259e-006
Heightened Def Con from 6.02259e-006 ++to 6.02259e-006
Heightened Def Con from 6.02259e-006 to 6.02259e-006
Heightened Def Con from 6.02259e-006 ++++to 6.02259e-006
Heightened Def Con from 6.02259e-006 ++to 6.02259e-006
Heightened Def Con from 6.02259e-006 +++++to 6.02259e-006
Heightened Def Con from 6.02259e-006 ++to 6.02259e-006
Heightened Def Con from 6.02259e-006 +to 6.02259e-006
Heightened Def Con from 6.02259e-006 to 6.02259e-006
Heightened Def Con from 6.02259e-006 ++to 6.02259e-006
Heightened Def Con from 6.02259e-006 +++to 6.02259e-006
Heightened Def Con from 6.02259e-006 to 6.02259e-006
Heightened Def Con from 6.02259e-006 to 6.02259e-006
Heightened Def Con from 6.02259e-006 +++to 6.02259e-006
Heightened Def Con from 6.02259e-006 to 6.02259e-006
Heightened Def Con from 6.02259e-006 to 6.02259e-006
Heightened Def Con from 6.02259e-006 +to 6.02259e-006
Heightened Def Con from 6.02259e-006 +to 6.02259e-006
Heightened Def Con from 6.02259e-006 to 6.02259e-006
Heightened Def Con from 6.02259e-006 to 6.02259e-006
Heightened Def Con from 6.02259e-006 to 6.02259e-006
Heightened Def Con from 6.02259e-006 +to 6.02259e-006
Heightened Def Con from 6.02259e-006 to 6.02259e-006
Heightened Def Con from 6.02259e-006 to 6.02259e-006
Heightened Def Con from 6.02259e-006 to 6.02259e-006
Heightened Def Con from 6.02259e-006 +to 6.02259e-006
Heightened Def Con from 6.02259e-006 to 6.02259e-006
Heightened Def Con from 6.02259e-006 to 6.02259e-006
Heightened Def Con from 6.02259e-006 ++to 6.02259e-006
Heightened Def Con from 6.02259e-006 to 6.02259e-006
Heightened Def Con from 6.02259e-006 ++to 6.02259e-006
Heightened Def Con from 6.02259e-006 to 6.02259e-006
Heightened Def Con from 6.02259e-006 +++to 6.02259e-006
Heightened Def Con from 6.02259e-006 to 6.02259e-006
Heightened Def Con from 6.02259e-006 ++to 6.02259e-006
Heightened Def Con from 6.02259e-006 to 6.02259e-006
Heightened Def Con from 6.02259e-006 ++to 6.02259e-006
Heightened Def Con from 6.02259e-006 ++++to 6.02259e-006
Heightened Def Con from 6.02259e-006 to 6.02259e-006
Heightened Def Con from 6.02259e-006 to 6.02259e-006
Heightened Def Con from 6.02259e-006 to 6.02259e-006
Heightened Def Con from 6.02259e-006 to 6.02259e-006
Heightened Def Con from 6.02259e-006 to 6.02259e-006
Heightened Def Con from 6.02259e-006 to 6.02259e-006
Heightened Def Con from 6.02259e-006 +to 6.02259e-006
Heightened Def Con from 6.02259e-006 +to 6.02259e-006
Heightened Def Con from 6.02259e-006 to 6.02259e-006
Heightened Def Con from 6.02259e-006 +to 6.02259e-006
Heightened Def Con from 6.02259e-006 to 6.02259e-006
Heightened Def Con from 6.02259e-006 +to 6.02259e-006
Heightened Def Con from 6.02259e-006 +++to 6.02259e-006
Heightened Def Con from 6.02259e-006 ++to 6.02259e-006
Heightened Def Con from 6.02259e-006 to 6.02259e-006
Heightened Def Con from 6.02259e-006 to 6.02259e-006
Heightened Def Con from 6.02259e-006 to 6.02259e-006
Heightened Def Con from 6.02259e-006 to 6.02259e-006
Heightened Def Con from 6.02259e-006 to 6.02259e-006
Heightened Def Con from 6.02259e-006 to 6.02259e-006
Heightened Def Con from 6.02259e-006 to 6.02259e-006
Heightened Def Con from 6.02259e-006 to 6.02259e-006
Heightened Def Con from 6.02259e-006 +to 6.02259e-006
Heightened Def Con from 6.02259e-006 to 6.02259e-006
Heightened Def Con from 6.02259e-006 to 6.02259e-006
Heightened Def Con from 6.02259e-006 to 6.02259e-006
Heightened Def Con from 6.02259e-006 ++++++to 6.02259e-006
Heightened Def Con from 6.02259e-006 ++to 6.02259e-006
Heightened Def Con from 6.02259e-006 to 6.02259e-006
Heightened Def Con from 6.02259e-006 to 6.02259e-006
Heightened Def Con from 6.02259e-006 to 6.02259e-006
Heightened Def Con from 6.02259e-006 to 6.02259e-006
Heightened Def Con from 6.02259e-006 to 6.02259e-006
Heightened Def Con from 6.02259e-006 to 6.02259e-006
Heightened Def Con from 6.02259e-006 to 6.02259e-006
Heightened Def Con from 6.02259e-006 to 6.02259e-006
Heightened Def Con from 6.02259e-006 to 6.02259e-006
Heightened Def Con from 6.02259e-006 to 6.02259e-006
Heightened Def Con from 6.02259e-006 to 6.02259e-006
Heightened Def Con from 6.02259e-006 +to 6.02259e-006
Heightened Def Con from 6.02259e-006 ++to 6.02259e-006
Heightened Def Con from 6.02259e-006 to 6.02259e-006
Heightened Def Con from 6.02259e-006 +to 6.02259e-006
Heightened Def Con from 6.02259e-006 +to 6.02259e-006
Heightened Def Con from 6.02259e-006 to 6.02259e-006
Heightened Def Con from 6.02259e-006 to 6.02259e-006
Heightened Def Con from 6.02259e-006 to 6.02259e-006
Heightened Def Con from 6.02259e-006 to 6.02259e-006
Heightened Def Con from 6.02259e-006 to 6.02259e-006
Heightened Def Con from 6.02259e-006 +to 6.02259e-006
Heightened Def Con from 6.02259e-006 +++to 6.02259e-006
Heightened Def Con from 6.02259e-006 ++to 6.02259e-006
Heightened Def Con from 6.02259e-006 to 6.02259e-006
Heightened Def Con from 6.02259e-006 ++to 6.02259e-006
Heightened Def Con from 6.02259e-006 to 6.02259e-006
Heightened Def Con from 6.02259e-006 to 6.02259e-006
Heightened Def Con from 6.02259e-006 to 6.02259e-006
Heightened Def Con from 6.02259e-006 +to 6.02259e-006
Heightened Def Con from 6.02259e-006 to 6.02259e-006
Heightened Def Con from 6.02259e-006 to 6.02259e-006
Heightened Def Con from 6.02259e-006 to 6.02259e-006
Heightened Def Con from 6.02259e-006 +to 6.02259e-006
Heightened Def Con from 6.02259e-006 to 6.02259e-006
Heightened Def Con from 6.02259e-006 ++to 6.02259e-006
Heightened Def Con from 6.02259e-006 to 6.02259e-006
Heightened Def Con from 6.02259e-006 +to 6.02259e-006
Heightened Def Con from 6.02259e-006 to 6.02259e-006
Heightened Def Con from 6.02259e-006 to 6.02259e-006
Heightened Def Con from 6.02259e-006 to 6.02259e-006
Heightened Def Con from 6.02259e-006 to 6.02259e-006
Heightened Def Con from 6.02259e-006 +++to 6.02259e-006
Heightened Def Con from 6.02259e-006 to 6.02259e-006
Heightened Def Con from 6.02259e-006 to 6.02259e-006
Heightened Def Con from 6.02259e-006 to 6.02259e-006
Heightened Def Con from 6.02259e-006 to 6.02259e-006
Heightened Def Con from 6.02259e-006 to 6.02259e-006
Heightened Def Con from 6.02259e-006 to 6.02259e-006
Heightened Def Con from 6.02259e-006 to 6.02259e-006
Heightened Def Con from 6.02259e-006 to 6.02259e-006
Heightened Def Con from 6.02259e-006 ++to 6.02259e-006
Heightened Def Con from 6.02259e-006 ++to 6.02259e-006
Heightened Def Con from 6.02259e-006 to 6.02259e-006
Heightened Def Con from 6.02259e-006 to 6.02259e-006
Heightened Def Con from 6.02259e-006 +to 6.02259e-006
Heightened Def Con from 6.02259e-006 to 6.02259e-006
Heightened Def Con from 6.02259e-006 to 6.02259e-006
Heightened Def Con from 6.02259e-006 to 6.02259e-006

Date: Wed Nov 06 22:26:50 2024
Total elapsed time: 2.469 seconds.

tnom = 27
temp = 27
method = modified trap
totiter = 607484
traniter = 606980
tranpoints = 68679
accept = 22138
rejected = 50613
matrix size = 65
fillins = 42
solver = Normal
Matrix Compiler1: 4.44 KB object code size  0.6/0.2/[0.2]
Matrix Compiler2: 6.34 KB object code size  0.5/0.4/[0.2]

