Circuit: * Z:\home\ostoja\Elektronika\peak_detector\Draft1.asc

Direct Newton iteration for .op point succeeded.

Date: Fri Nov 08 00:57:59 2024
Total elapsed time: 5.129 seconds.

tnom = 27
temp = 27
method = modified trap
totiter = 2381321
traniter = 2381312
tranpoints = 841293
accept = 631809
rejected = 209484
matrix size = 34
fillins = 16
solver = Normal
Matrix Compiler1: 3.04 KB object code size  0.4/0.2/[0.2]
Matrix Compiler2: 3.05 KB object code size  0.2/0.2/[0.2]

