Circuit: * Z:\home\ostoja\Elektronika\peak_detector\simulacije\ogledalce.asc

Early termination of direct N-R iteration.
Direct Newton iteration failed to find .op point.  (Use ".option noopiter" to skip.)
Starting Gmin stepping
Gmin = 10
vernier = 0.5
vernier = 0.25
vernier = 0.125
Gmin = 5.5165
vernier = 0.0625
vernier = 0.03125
vernier = 0.015625
vernier = 0.0078125
Gmin = 5.49501
vernier = 0.00390625
vernier = 0.00195313
vernier = 0.000976563
vernier = 0.000488281
Gmin = 5.50104
Gmin = 0
Gmin stepping failed

Starting source stepping with srcstepmethod=0
Source Step = 3.0303%
Source Step = 33.3333%
Source Step = 63.6364%
Source Step = 93.9394%
Source stepping succeeded in finding the operating point.

Heightened Def Con from 2.79235e-007 +++++to 2.79235e-007
Heightened Def Con from 2.79235e-007 ++++++to 2.79235e-007
Heightened Def Con from 2.79235e-007 +++++to 2.79235e-007
Heightened Def Con from 2.79235e-007 +++++++to 2.79235e-007
Heightened Def Con from 2.79235e-007 ++++++++to 2.79235e-007
Heightened Def Con from 2.79514e-007 to 2.79514e-007
Heightened Def Con from 2.79514e-007 ++++++++to 2.79514e-007
Heightened Def Con from 2.79886e-007 to 2.79886e-007
Heightened Def Con from 2.83889e-007 to 2.83889e-007
Heightened Def Con from 2.84577e-007 to 2.84577e-007
Heightened Def Con from 2.84577e-007 to 2.84577e-007
Heightened Def Con from 2.91531e-007 to 2.91531e-007
Heightened Def Con from 7.96506e-007 +to 7.96506e-007
Heightened Def Con from 7.96506e-007 to 7.96506e-007
Heightened Def Con from 1.29936e-006 +to 1.29936e-006
Heightened Def Con from 1.29936e-006 to 1.29936e-006
Heightened Def Con from 1.29936e-006 to 1.29936e-006
Heightened Def Con from 3.30005e-006 +to 3.30005e-006
Heightened Def Con from 3.30005e-006 to 3.30005e-006
Heightened Def Con from 3.30005e-006 +++to 3.30005e-006
Heightened Def Con from 3.30005e-006 ++to 3.30005e-006
Heightened Def Con from 4.7965e-006 to 4.7965e-006
Heightened Def Con from 5.25782e-006 to 5.25782e-006
Heightened Def Con from 7.30078e-006 +to 7.30078e-006
Heightened Def Con from 7.30078e-006 to 7.30103e-006
Heightened Def Con from 9.30101e-006 to 9.30101e-006
Heightened Def Con from 9.79649e-006 to 9.79649e-006
Heightened Def Con from 9.79649e-006 +to 9.79649e-006
Heightened Def Con from 9.79649e-006 +to 9.79649e-006
Heightened Def Con from 9.79649e-006 to 9.79652e-006
Heightened Def Con from 1.13012e-005 to 1.13012e-005
Heightened Def Con from 1.13012e-005 to 1.13012e-005
Heightened Def Con from 1.23013e-005 to 1.23013e-005
Heightened Def Con from 1.27965e-005 to 1.27965e-005
Heightened Def Con from 1.33014e-005 +++++to 1.33014e-005
Heightened Def Con from 1.43014e-005 to 1.43014e-005
Heightened Def Con from 1.47965e-005 to 1.47965e-005
Heightened Def Con from 1.53015e-005 to 1.53015e-005
Heightened Def Con from 1.53015e-005 to 1.53015e-005
Heightened Def Con from 1.53015e-005 +to 1.53015e-005
Heightened Def Con from 1.53015e-005 ++++to 1.53015e-005
Heightened Def Con from 1.57965e-005 to 1.57965e-005
Heightened Def Con from 1.73016e-005 to 1.73016e-005
Heightened Def Con from 1.77965e-005 to 1.77965e-005
Heightened Def Con from 1.83017e-005 to 1.83017e-005
Heightened Def Con from 1.97965e-005 to 1.97965e-005
Heightened Def Con from 1.97965e-005 to 1.97965e-005
Heightened Def Con from 2.03018e-005 to 2.03018e-005
Heightened Def Con from 2.03018e-005 to 2.03018e-005
Heightened Def Con from 2.17965e-005 +++to 2.17965e-005
Heightened Def Con from 2.17965e-005 to 2.17965e-005
Heightened Def Con from 2.17965e-005 to 2.17969e-005
Heightened Def Con from 2.27965e-005 ++++to 2.27965e-005
Heightened Def Con from 2.36579e-005 to 2.36579e-005
Heightened Def Con from 2.36579e-005 +to 2.36579e-005
Heightened Def Con from 2.36579e-005 to 2.36579e-005
Heightened Def Con from 2.46579e-005 to 2.46579e-005
Heightened Def Con from 2.46579e-005 to 2.46579e-005
Heightened Def Con from 2.46579e-005 to 2.46579e-005
Heightened Def Con from 2.47965e-005 to 2.47965e-005
Heightened Def Con from 2.47965e-005 to 2.47965e-005
Heightened Def Con from 2.56579e-005 to 2.56579e-005
Heightened Def Con from 2.57965e-005 to 2.57965e-005
Heightened Def Con from 2.77965e-005 to 2.77965e-005
Heightened Def Con from 2.83021e-005 to 2.83021e-005
Heightened Def Con from 2.83021e-005 ++++to 2.83021e-005
Heightened Def Con from 2.87965e-005 ++to 2.87965e-005
Heightened Def Con from 2.92357e-005 to 2.92357e-005
Heightened Def Con from 2.97965e-005 to 2.97965e-005
Heightened Def Con from 3.07965e-005 +to 3.07965e-005
Heightened Def Con from 3.17965e-005 to 3.17965e-005
Heightened Def Con from 3.17965e-005 +to 3.17965e-005
Heightened Def Con from 3.23022e-005 to 3.23022e-005
Heightened Def Con from 3.33023e-005 to 3.33023e-005
Heightened Def Con from 3.33023e-005 +++to 3.33023e-005
Heightened Def Con from 3.33023e-005 +++++to 3.33023e-005
Heightened Def Con from 3.37965e-005 to 3.37965e-005
Heightened Def Con from 3.57965e-005 to 3.57965e-005
Heightened Def Con from 3.57965e-005 +++to 3.57965e-005
Heightened Def Con from 3.57965e-005 to 3.57965e-005
Heightened Def Con from 3.67965e-005 +++to 3.67965e-005
Heightened Def Con from 3.72349e-005 to 3.72349e-005
Heightened Def Con from 3.77965e-005 ++++to 3.77965e-005
Heightened Def Con from 3.83024e-005 to 3.83024e-005
Heightened Def Con from 4.07965e-005 to 4.07965e-005
Heightened Def Con from 4.07965e-005 to 4.07965e-005
Heightened Def Con from 4.07965e-005 +++++to 4.07965e-005
Heightened Def Con from 4.07965e-005 to 4.07965e-005
Heightened Def Con from 4.13024e-005 to 4.13024e-005
Heightened Def Con from 4.13024e-005 to 4.13054e-005
Heightened Def Con from 4.17965e-005 to 4.17965e-005
Heightened Def Con from 4.17965e-005 to 4.17965e-005
Heightened Def Con from 4.17965e-005 to 4.17965e-005
Heightened Def Con from 4.23025e-005 to 4.23025e-005
Heightened Def Con from 4.23025e-005 to 4.23025e-005
Heightened Def Con from 4.23025e-005 to 4.23025e-005
Heightened Def Con from 4.33025e-005 ++++to 4.33025e-005
Heightened Def Con from 4.33025e-005 to 4.33025e-005
Heightened Def Con from 4.37965e-005 to 4.37965e-005
Heightened Def Con from 4.37965e-005 ++to 4.37965e-005
Heightened Def Con from 4.37965e-005 to 4.37965e-005
Heightened Def Con from 4.43025e-005 +++++to 4.43025e-005
Heightened Def Con from 4.53025e-005 +to 4.53025e-005
Heightened Def Con from 4.53025e-005 to 4.53025e-005
Heightened Def Con from 4.63025e-005 to 4.63025e-005
Heightened Def Con from 4.63025e-005 to 4.63026e-005
Heightened Def Con from 4.77965e-005 to 4.77965e-005
Heightened Def Con from 4.83025e-005 to 4.83025e-005
Heightened Def Con from 4.93026e-005 ++to 4.93026e-005
Heightened Def Con from 5.07965e-005 to 5.07965e-005
Heightened Def Con from 5.07965e-005 to 5.07965e-005
Heightened Def Con from 5.17965e-005 to 5.17965e-005
Heightened Def Con from 5.23026e-005 +++to 5.23026e-005
Heightened Def Con from 5.26579e-005 to 5.26579e-005
Heightened Def Con from 5.26579e-005 to 5.26579e-005
Heightened Def Con from 5.37965e-005 to 5.37965e-005
Heightened Def Con from 5.37965e-005 to 5.37965e-005
Heightened Def Con from 5.37965e-005 to 5.37965e-005
Heightened Def Con from 5.43026e-005 to 5.43026e-005
Heightened Def Con from 5.43026e-005 to 5.43026e-005
Heightened Def Con from 5.47965e-005 +++to 5.47965e-005
Heightened Def Con from 5.53026e-005 to 5.53026e-005
Heightened Def Con from 5.53026e-005 to 5.53026e-005
Heightened Def Con from 5.57965e-005 to 5.57965e-005
Heightened Def Con from 5.57965e-005 +++to 5.57965e-005
Heightened Def Con from 5.57965e-005 to 5.57965e-005
Heightened Def Con from 5.63026e-005 to 5.63026e-005
Heightened Def Con from 5.67965e-005 to 5.67965e-005
Heightened Def Con from 5.72339e-005 to 5.72339e-005
Heightened Def Con from 5.87965e-005 to 5.87965e-005
Heightened Def Con from 5.93026e-005 to 5.93026e-005
Heightened Def Con from 5.93026e-005 to 5.93026e-005
Heightened Def Con from 5.93026e-005 to 5.93026e-005
Heightened Def Con from 5.93026e-005 to 5.93026e-005
Heightened Def Con from 6.07965e-005 to 6.07965e-005
Heightened Def Con from 6.16579e-005 to 6.16579e-005
Heightened Def Con from 6.16579e-005 to 6.16579e-005
Heightened Def Con from 6.27965e-005 ++to 6.27965e-005
Heightened Def Con from 6.32338e-005 to 6.32338e-005
Heightened Def Con from 6.33026e-005 to 6.33026e-005
Heightened Def Con from 6.33026e-005 to 6.33026e-005
Heightened Def Con from 6.37965e-005 to 6.37965e-005
Heightened Def Con from 6.37965e-005 to 6.37965e-005
Heightened Def Con from 6.37965e-005 to 6.37965e-005
Heightened Def Con from 6.47965e-005 +to 6.47965e-005
Heightened Def Con from 6.63026e-005 to 6.63026e-005
Heightened Def Con from 6.63026e-005 to 6.63026e-005
Heightened Def Con from 6.67965e-005 to 6.67968e-005
Heightened Def Con from 6.77965e-005 ++to 6.77965e-005
Heightened Def Con from 6.77965e-005 to 6.77965e-005
Heightened Def Con from 6.83026e-005 +++to 6.83026e-005
Heightened Def Con from 6.87965e-005 +++to 6.87965e-005
Heightened Def Con from 6.93026e-005 to 6.93026e-005
Heightened Def Con from 6.93026e-005 to 6.93026e-005
Heightened Def Con from 7.02336e-005 to 7.02336e-005
Heightened Def Con from 7.03026e-005 to 7.03026e-005
Heightened Def Con from 7.03026e-005 +++to 7.03026e-005
Heightened Def Con from 7.03026e-005 to 7.03026e-005
Heightened Def Con from 7.17965e-005 to 7.17965e-005
Heightened Def Con from 7.17965e-005 ++to 7.17965e-005
Heightened Def Con from 7.17965e-005 to 7.17965e-005
Heightened Def Con from 7.23026e-005 ++++to 7.23026e-005
Heightened Def Con from 7.27965e-005 to 7.27965e-005
Heightened Def Con from 7.27965e-005 to 7.27965e-005
Heightened Def Con from 7.33026e-005 to 7.33026e-005
Heightened Def Con from 7.37965e-005 to 7.37965e-005
Heightened Def Con from 7.43026e-005 to 7.43026e-005
Heightened Def Con from 7.43026e-005 to 7.43026e-005
Heightened Def Con from 7.43026e-005 to 7.43026e-005
Heightened Def Con from 7.47965e-005 to 7.47965e-005
Heightened Def Con from 7.63026e-005 to 7.63026e-005
Heightened Def Con from 7.63026e-005 +++to 7.63026e-005
Heightened Def Con from 7.67965e-005 to 7.67965e-005
Heightened Def Con from 7.77965e-005 to 7.77965e-005
Heightened Def Con from 7.77965e-005 to 7.77965e-005
Heightened Def Con from 7.83026e-005 to 7.83026e-005
Heightened Def Con from 7.97965e-005 to 7.97965e-005
Heightened Def Con from 7.97965e-005 to 7.97965e-005
Heightened Def Con from 7.97965e-005 to 7.97965e-005
Heightened Def Con from 7.97965e-005 to 7.97965e-005
Heightened Def Con from 8.07965e-005 to 8.07968e-005
Heightened Def Con from 8.12334e-005 to 8.12334e-005
Heightened Def Con from 8.17965e-005 to 8.17965e-005
Heightened Def Con from 8.17965e-005 to 8.17965e-005
Heightened Def Con from 8.27965e-005 ++to 8.27965e-005
Heightened Def Con from 8.33025e-005 to 8.33025e-005
Heightened Def Con from 8.33025e-005 to 8.33025e-005
Heightened Def Con from 8.33025e-005 +++to 8.33025e-005
Heightened Def Con from 8.33025e-005 to 8.33025e-005
Heightened Def Con from 8.37965e-005 to 8.37965e-005
Heightened Def Con from 8.47965e-005 to 8.47965e-005
Heightened Def Con from 8.53025e-005 to 8.53025e-005
Heightened Def Con from 8.53025e-005 to 8.53025e-005
Heightened Def Con from 8.57965e-005 to 8.57965e-005
Heightened Def Con from 8.57965e-005 to 8.57965e-005
Heightened Def Con from 8.73025e-005 ++++to 8.73025e-005
Heightened Def Con from 8.73025e-005 to 8.73025e-005
Heightened Def Con from 8.77965e-005 to 8.77965e-005
Heightened Def Con from 8.83025e-005 ++++to 8.83025e-005
Heightened Def Con from 8.93025e-005 ++++to 8.93025e-005
Heightened Def Con from 8.93025e-005 to 8.93025e-005
Heightened Def Con from 8.97965e-005 to 8.97965e-005
Heightened Def Con from 8.97965e-005 to 8.97965e-005
Heightened Def Con from 9.03025e-005 to 9.03025e-005
Heightened Def Con from 9.13025e-005 to 9.13025e-005
Heightened Def Con from 9.17965e-005 +to 9.17965e-005
Heightened Def Con from 9.23024e-005 to 9.23024e-005
Heightened Def Con from 9.27965e-005 to 9.27965e-005
Heightened Def Con from 9.27965e-005 to 9.27965e-005
Heightened Def Con from 9.27965e-005 to 9.27965e-005
Heightened Def Con from 9.32332e-005 to 9.32332e-005
Heightened Def Con from 9.32332e-005 to 9.32332e-005
Heightened Def Con from 9.33024e-005 +++to 9.33024e-005
Heightened Def Con from 9.33024e-005 to 9.33024e-005
Heightened Def Con from 9.37965e-005 +++to 9.37965e-005
Heightened Def Con from 9.37965e-005 to 9.37965e-005
Heightened Def Con from 9.43024e-005 ++++to 9.43024e-005
Heightened Def Con from 9.53024e-005 to 9.53024e-005
Heightened Def Con from 9.73024e-005 to 9.73024e-005
Heightened Def Con from 9.73024e-005 to 9.73024e-005
Heightened Def Con from 9.83024e-005 to 9.83024e-005
Heightened Def Con from 9.83024e-005 to 9.83024e-005
Heightened Def Con from 9.87965e-005 to 9.87965e-005
Heightened Def Con from 9.87965e-005 to 9.87965e-005
Heightened Def Con from 9.96579e-005 to 9.96579e-005
Heightened Def Con from 0.000100302 to 0.000100302
Heightened Def Con from 0.000101233 to 0.000101233
Heightened Def Con from 0.000101796 to 0.000101796
Heightened Def Con from 0.000102796 to 0.000102796
Heightened Def Con from 0.000102796 to 0.000102796
Heightened Def Con from 0.000103302 to 0.000103302
Heightened Def Con from 0.000104796 to 0.000104797
Heightened Def Con from 0.000105302 to 0.000105302
Heightened Def Con from 0.000108233 to 0.000108233
Heightened Def Con from 0.000108796 to 0.000108796
Heightened Def Con from 0.000109233 to 0.000109233
Heightened Def Con from 0.000109796 ++++to 0.000109796
Heightened Def Con from 0.000109796 to 0.000109796
Heightened Def Con from 0.000109796 to 0.000109796
Heightened Def Con from 0.000110796 +to 0.000110796
Heightened Def Con from 0.000110796 ++to 0.000110796
Heightened Def Con from 0.000110796 to 0.000110796
Heightened Def Con from 0.000110796 to 0.000110796
Heightened Def Con from 0.000112302 to 0.000112302
Heightened Def Con from 0.000112302 to 0.000112302
Heightened Def Con from 0.000112796 ++++to 0.000112796
Heightened Def Con from 0.000115302 +to 0.000115302
Heightened Def Con from 0.000115302 to 0.000115302
Heightened Def Con from 0.000116302 to 0.000116302
Heightened Def Con from 0.000116796 ++to 0.000116796
Heightened Def Con from 0.000116796 to 0.000116796
Heightened Def Con from 0.000118302 to 0.000118302
Heightened Def Con from 0.000119302 +to 0.000119302
Heightened Def Con from 0.000119302 to 0.000119302
Heightened Def Con from 0.000120796 to 0.000120796
Heightened Def Con from 0.000122796 to 0.000122796
Heightened Def Con from 0.000123302 to 0.000123302
Heightened Def Con from 0.000123658 to 0.000123658
Heightened Def Con from 0.000123796 to 0.000123796
Heightened Def Con from 0.000124796 to 0.000124796
Heightened Def Con from 0.000124796 ++to 0.000124796
Heightened Def Con from 0.000124796 to 0.000124796
Heightened Def Con from 0.000126796 to 0.000126796
Heightened Def Con from 0.000126796 to 0.000126796
Heightened Def Con from 0.000126796 ++to 0.000126796
Heightened Def Con from 0.000126796 to 0.000126796
Heightened Def Con from 0.000126796 to 0.000126796
Heightened Def Con from 0.000127302 ++to 0.000127302
Heightened Def Con from 0.000127302 ++to 0.000127302
Heightened Def Con from 0.000127796 +++to 0.000127796
Heightened Def Con from 0.000128302 to 0.000128302
Heightened Def Con from 0.000128796 to 0.000128796
Heightened Def Con from 0.000129302 to 0.000129302
Heightened Def Con from 0.000130302 to 0.000130302
Heightened Def Con from 0.000130302 to 0.000130302
Heightened Def Con from 0.000130302 to 0.000130302
Heightened Def Con from 0.000130796 to 0.000130796
Heightened Def Con from 0.000131658 to 0.000131658
Heightened Def Con from 0.000131658 to 0.000131658
Heightened Def Con from 0.000131796 to 0.000131796
Heightened Def Con from 0.000131796 +++to 0.000131796
Heightened Def Con from 0.000132302 +++to 0.000132302
Heightened Def Con from 0.000132658 to 0.000132658
Heightened Def Con from 0.000132658 to 0.000132658
Heightened Def Con from 0.000132796 to 0.000132796
Heightened Def Con from 0.000133302 +to 0.000133302
Heightened Def Con from 0.000133796 to 0.000133796
Heightened Def Con from 0.000134796 to 0.000134796
Heightened Def Con from 0.000134796 to 0.000134796
Heightened Def Con from 0.000135658 to 0.000135658
Heightened Def Con from 0.000135796 to 0.000135796
Heightened Def Con from 0.000135796 +to 0.000135796
Heightened Def Con from 0.000135796 to 0.000135796
Heightened Def Con from 0.000136796 to 0.000136796
Heightened Def Con from 0.000137796 to 0.000137796
Heightened Def Con from 0.000137796 to 0.000137796
Heightened Def Con from 0.000137796 to 0.000137796
Heightened Def Con from 0.000139302 to 0.000139302
Heightened Def Con from 0.000139796 to 0.000139796
Heightened Def Con from 0.000139796 to 0.000139796
Heightened Def Con from 0.000140796 to 0.000140796
Heightened Def Con from 0.000140796 to 0.000140796
Heightened Def Con from 0.000140796 to 0.000140796
Heightened Def Con from 0.000141796 +to 0.000141797
Heightened Def Con from 0.000142302 ++to 0.000142302
Heightened Def Con from 0.000142302 to 0.000142302
Heightened Def Con from 0.000144301 to 0.000144301
Heightened Def Con from 0.000144301 ++to 0.000144301
Heightened Def Con from 0.000144301 to 0.000144302
Heightened Def Con from 0.000144796 ++++to 0.000144796
Heightened Def Con from 0.000144796 to 0.000144796
Heightened Def Con from 0.000144796 ++++to 0.000144796
Heightened Def Con from 0.000145796 to 0.000145796
Heightened Def Con from 0.000146796 to 0.000146796
Heightened Def Con from 0.000147301 to 0.000147301
Heightened Def Con from 0.000148301 to 0.000148301
Heightened Def Con from 0.000148658 to 0.000148658
Heightened Def Con from 0.000148796 to 0.000148796
Heightened Def Con from 0.000148796 to 0.000148796
Heightened Def Con from 0.000148796 to 0.000148796
Heightened Def Con from 0.000149796 ++++to 0.000149796
Heightened Def Con from 0.000149796 to 0.000149796
Heightened Def Con from 0.000150301 to 0.000150301
Heightened Def Con from 0.000150301 to 0.000150301
Heightened Def Con from 0.000150301 to 0.000150301
Heightened Def Con from 0.000150301 +to 0.000150301
Heightened Def Con from 0.000150658 to 0.000150658
Heightened Def Con from 0.000150658 to 0.000150658
Heightened Def Con from 0.000150796 +++to 0.000150796
Heightened Def Con from 0.000150796 ++++to 0.000150796
Heightened Def Con from 0.000151301 to 0.000151301
Heightened Def Con from 0.000151301 +to 0.000151301
Heightened Def Con from 0.000151301 to 0.000151301
Heightened Def Con from 0.000151796 to 0.000151796
Heightened Def Con from 0.000151796 to 0.000151796
Heightened Def Con from 0.000151796 ++to 0.000151796
Heightened Def Con from 0.000152233 to 0.000152233
Heightened Def Con from 0.000152796 to 0.000152796
Heightened Def Con from 0.000152796 to 0.000152796
Heightened Def Con from 0.000152796 +++to 0.000152796
Heightened Def Con from 0.000152796 to 0.000152796
Heightened Def Con from 0.000154301 to 0.000154301
Heightened Def Con from 0.000154301 to 0.000154301
Heightened Def Con from 0.000154301 to 0.000154301
Heightened Def Con from 0.000154796 to 0.000154796
Heightened Def Con from 0.000155301 +to 0.000155301
Heightened Def Con from 0.000155796 +++to 0.000155796
Heightened Def Con from 0.000155796 to 0.000155796
Heightened Def Con from 0.000155796 to 0.000155796
Heightened Def Con from 0.000156301 to 0.000156301
Heightened Def Con from 0.000156796 to 0.000156796
Heightened Def Con from 0.000157301 to 0.000157301
Heightened Def Con from 0.000157796 to 0.000157796
Heightened Def Con from 0.000158301 +++++to 0.000158301
Heightened Def Con from 0.000158301 to 0.000158301
Heightened Def Con from 0.000158796 to 0.000158796
Heightened Def Con from 0.000161796 to 0.000161796
Heightened Def Con from 0.000162301 +to 0.000162301
Heightened Def Con from 0.000162301 to 0.000162304
Heightened Def Con from 0.000162796 to 0.000162796
Heightened Def Con from 0.000162796 to 0.000162796
Heightened Def Con from 0.000163796 to 0.000163796
Heightened Def Con from 0.000163796 to 0.000163796
Heightened Def Con from 0.000164796 to 0.000164796
Heightened Def Con from 0.000165796 to 0.000165796
Heightened Def Con from 0.000166301 to 0.000166304
Heightened Def Con from 0.000167796 to 0.000167796
Heightened Def Con from 0.000169301 to 0.000169301
Heightened Def Con from 0.000169301 ++to 0.000169301
Heightened Def Con from 0.000169301 to 0.000169301
Heightened Def Con from 0.000170796 ++++to 0.000170796
Heightened Def Con from 0.000171796 to 0.000171796
Heightened Def Con from 0.000171796 to 0.000171796
Heightened Def Con from 0.000172796 to 0.000172796
Heightened Def Con from 0.000172796 +++to 0.000172796
Heightened Def Con from 0.000172796 +++to 0.000172796
Heightened Def Con from 0.000173301 to 0.000173301
Heightened Def Con from 0.000173301 to 0.000173301
Heightened Def Con from 0.000173796 to 0.000173796
Heightened Def Con from 0.000175301 +to 0.000175301
Heightened Def Con from 0.000176301 +++to 0.000176301
Heightened Def Con from 0.000176658 to 0.000176658
Heightened Def Con from 0.000176796 to 0.000176796
Heightened Def Con from 0.000176796 to 0.000176796
Heightened Def Con from 0.000176796 to 0.000176796
Heightened Def Con from 0.000177796 to 0.000177796
Heightened Def Con from 0.000177796 to 0.000177796
Heightened Def Con from 0.000178301 +to 0.000178301
Heightened Def Con from 0.000178301 to 0.000178301
Heightened Def Con from 0.000180796 to 0.000180796
Heightened Def Con from 0.000180796 to 0.000180796
Heightened Def Con from 0.000180796 to 0.000180796
Heightened Def Con from 0.000181301 to 0.000181301
Heightened Def Con from 0.000181301 to 0.000181301
Heightened Def Con from 0.000181301 ++to 0.000181301
Heightened Def Con from 0.000181796 to 0.000181796
Heightened Def Con from 0.000181796 to 0.000181796
Heightened Def Con from 0.000182301 +++to 0.000182301
Heightened Def Con from 0.000182301 ++++to 0.000182301
Heightened Def Con from 0.000182796 ++to 0.000182796
Heightened Def Con from 0.000183796 to 0.000183796
Heightened Def Con from 0.000184301 +to 0.000184301
Heightened Def Con from 0.000184796 to 0.000184796
Heightened Def Con from 0.000185658 to 0.000185658
Heightened Def Con from 0.000185796 to 0.000185796
Heightened Def Con from 0.000185796 to 0.000185796
Heightened Def Con from 0.000186796 ++to 0.000186796
Heightened Def Con from 0.000187301 to 0.000187301
Heightened Def Con from 0.000187301 to 0.000187301
Heightened Def Con from 0.000187796 to 0.000187796
Heightened Def Con from 0.000187796 to 0.000187796
Heightened Def Con from 0.000187796 to 0.000187796
Heightened Def Con from 0.000187796 ++to 0.000187796
Heightened Def Con from 0.000187796 to 0.000187796
Heightened Def Con from 0.000188796 to 0.000188796
Heightened Def Con from 0.000188796 to 0.000188796
Heightened Def Con from 0.000188796 to 0.000188796
Heightened Def Con from 0.000189301 to 0.000189301
Heightened Def Con from 0.000189301 to 0.000189301
Heightened Def Con from 0.000189301 to 0.000189301
Heightened Def Con from 0.000189796 to 0.000189796
Heightened Def Con from 0.000190301 to 0.000190301
Heightened Def Con from 0.000191796 to 0.000191796
Heightened Def Con from 0.000191796 +++++to 0.000191796
Heightened Def Con from 0.0001923 ++to 0.0001923
Heightened Def Con from 0.0001923 to 0.0001923
Heightened Def Con from 0.000192796 to 0.000192796
Heightened Def Con from 0.0001933 to 0.0001933
Heightened Def Con from 0.000193796 to 0.000193796
Heightened Def Con from 0.0001943 to 0.0001943
Heightened Def Con from 0.000195796 to 0.000195796
Heightened Def Con from 0.000195796 to 0.000195796
Heightened Def Con from 0.000196796 to 0.000196796
Heightened Def Con from 0.000196796 to 0.000196796
Heightened Def Con from 0.0001973 to 0.0001973
Heightened Def Con from 0.0001973 to 0.000197301
Heightened Def Con from 0.000197796 to 0.000197796
Heightened Def Con from 0.000197796 to 0.000197796
Heightened Def Con from 0.0001983 to 0.0001983
Heightened Def Con from 0.0001983 to 0.0001983
Heightened Def Con from 0.0001983 to 0.0001983
Heightened Def Con from 0.0001993 ++++to 0.0001993
Heightened Def Con from 0.000199658 to 0.000199658
Heightened Def Con from 0.000202796 to 0.000202796
Heightened Def Con from 0.000202796 to 0.000202797
Heightened Def Con from 0.000203796 to 0.000203796
Heightened Def Con from 0.000203796 to 0.000203796
Heightened Def Con from 0.0002043 to 0.0002043
Heightened Def Con from 0.0002043 to 0.0002043
Heightened Def Con from 0.000204796 ++to 0.000204796
Heightened Def Con from 0.000204796 to 0.000204796
Heightened Def Con from 0.000205796 +to 0.000205796
Heightened Def Con from 0.000205796 to 0.000205796
Heightened Def Con from 0.0002073 to 0.0002073
Heightened Def Con from 0.0002073 to 0.0002073
Heightened Def Con from 0.000207796 to 0.000207796
Heightened Def Con from 0.0002083 to 0.0002083
Heightened Def Con from 0.000208796 ++++to 0.000208796
Heightened Def Con from 0.000210232 to 0.000210232
Heightened Def Con from 0.000210796 to 0.000210796
Heightened Def Con from 0.000211796 to 0.000211796
Heightened Def Con from 0.000213796 to 0.000213796
Heightened Def Con from 0.000213796 to 0.000213796
Heightened Def Con from 0.000213796 to 0.000213796
Heightened Def Con from 0.000214796 to 0.000214796
Heightened Def Con from 0.000215796 to 0.000215796
Heightened Def Con from 0.000215796 to 0.000215796
Heightened Def Con from 0.0002163 +++to 0.0002163
Heightened Def Con from 0.000216796 to 0.000216796
Heightened Def Con from 0.000217796 to 0.000217796
Heightened Def Con from 0.000219796 to 0.000219796
Heightened Def Con from 0.000219796 to 0.000219796
Heightened Def Con from 0.000219796 to 0.000219796
Heightened Def Con from 0.0002203 to 0.0002203
Heightened Def Con from 0.0002203 to 0.0002203
Heightened Def Con from 0.0002203 to 0.0002203
Heightened Def Con from 0.0002203 to 0.0002203
Heightened Def Con from 0.0002203 to 0.0002203
Heightened Def Con from 0.0002223 to 0.0002223
Heightened Def Con from 0.0002223 +++to 0.0002223
Heightened Def Con from 0.0002223 to 0.0002223
Heightened Def Con from 0.0002243 to 0.0002243
Heightened Def Con from 0.0002243 +to 0.0002243
Heightened Def Con from 0.0002243 +to 0.0002243
Heightened Def Con from 0.0002243 to 0.0002243
Heightened Def Con from 0.000225796 to 0.000225796
Heightened Def Con from 0.000225796 to 0.000225796
Heightened Def Con from 0.000226796 to 0.000226796
Heightened Def Con from 0.000228796 to 0.000228796
Heightened Def Con from 0.000229232 to 0.000229232
Heightened Def Con from 0.000229796 to 0.000229796
Heightened Def Con from 0.000229796 +++to 0.000229796
Heightened Def Con from 0.0002313 +to 0.0002313
Heightened Def Con from 0.000232796 to 0.000232796
Heightened Def Con from 0.000232796 to 0.000232796
Heightened Def Con from 0.000232796 to 0.000232796
Heightened Def Con from 0.000232796 to 0.000232796
Heightened Def Con from 0.000232796 to 0.000232796
Heightened Def Con from 0.000232796 to 0.000232796
Heightened Def Con from 0.0002333 to 0.0002333
Heightened Def Con from 0.0002333 ++++to 0.0002333
Heightened Def Con from 0.0002333 to 0.0002333
Heightened Def Con from 0.000235232 to 0.000235232
Heightened Def Con from 0.000235796 to 0.000235796
Heightened Def Con from 0.000235796 to 0.000235796
Heightened Def Con from 0.000235796 to 0.000235796
Heightened Def Con from 0.000236796 to 0.000236796
Heightened Def Con from 0.000236796 ++++to 0.000236796
Heightened Def Con from 0.0002373 to 0.0002373
Heightened Def Con from 0.000237658 to 0.000237658
Heightened Def Con from 0.0002393 to 0.0002393
Heightened Def Con from 0.0002393 +to 0.0002393
Heightened Def Con from 0.0002393 ++++to 0.0002393
Heightened Def Con from 0.0002393 +++++to 0.0002393
Heightened Def Con from 0.000239796 to 0.000239796
Heightened Def Con from 0.0002403 to 0.0002403
Heightened Def Con from 0.0002403 to 0.0002403
Heightened Def Con from 0.0002403 to 0.0002403
Heightened Def Con from 0.0002403 to 0.0002403
Heightened Def Con from 0.000240796 ++to 0.000240796
Heightened Def Con from 0.000240796 to 0.000240796
Heightened Def Con from 0.0002413 to 0.0002413
Heightened Def Con from 0.000241796 to 0.000241796
Heightened Def Con from 0.000241796 to 0.000241796
Heightened Def Con from 0.000241796 to 0.000241796
Heightened Def Con from 0.000241796 to 0.000241796
Heightened Def Con from 0.000241796 to 0.000241796
Heightened Def Con from 0.0002423 to 0.0002423
Heightened Def Con from 0.0002423 to 0.0002423
Heightened Def Con from 0.0002423 +++to 0.0002423
Heightened Def Con from 0.0002423 to 0.0002423
Heightened Def Con from 0.0002423 to 0.0002423
Heightened Def Con from 0.000242796 to 0.000242796
Heightened Def Con from 0.000242796 to 0.000242796
Heightened Def Con from 0.0002433 to 0.0002433
Heightened Def Con from 0.000243658 to 0.000243658
Heightened Def Con from 0.000244796 to 0.000244796
Heightened Def Con from 0.000245796 to 0.000245796
Heightened Def Con from 0.0002463 to 0.0002463
Heightened Def Con from 0.0002463 to 0.0002463
Heightened Def Con from 0.0002463 +to 0.0002463
Heightened Def Con from 0.0002463 +++to 0.0002463
Heightened Def Con from 0.0002473 to 0.0002473
Heightened Def Con from 0.0002473 to 0.0002473
Heightened Def Con from 0.000247796 to 0.000247796
Heightened Def Con from 0.000247796 to 0.000247796
Heightened Def Con from 0.000247796 to 0.000247796
Heightened Def Con from 0.000247796 to 0.000247796
Heightened Def Con from 0.000248299 to 0.000248299
Heightened Def Con from 0.000248299 to 0.000248299
Heightened Def Con from 0.000248796 to 0.000248796
Heightened Def Con from 0.000248796 +++++to 0.000248796
Heightened Def Con from 0.000249299 to 0.000249299
Heightened Def Con from 0.000249299 to 0.000249299
Heightened Def Con from 0.000249299 to 0.000249299
Heightened Def Con from 0.000250299 to 0.000250299
Heightened Def Con from 0.000253299 to 0.000253299
Heightened Def Con from 0.000254796 to 0.000254796
Heightened Def Con from 0.000256299 +++to 0.000256299
Heightened Def Con from 0.000256299 to 0.000256299
Heightened Def Con from 0.000256299 to 0.000256299
Heightened Def Con from 0.000256796 to 0.000256796
Heightened Def Con from 0.000259232 to 0.000259232
Heightened Def Con from 0.000259299 ++++to 0.000259299
Heightened Def Con from 0.000259299 to 0.000259299
Heightened Def Con from 0.000260299 to 0.000260299
Heightened Def Con from 0.000260299 to 0.000260299
Heightened Def Con from 0.000260796 to 0.000260796
Heightened Def Con from 0.000262299 to 0.000262299
Heightened Def Con from 0.000262299 to 0.000262299
Heightened Def Con from 0.000262299 +to 0.000262299
Heightened Def Con from 0.000262299 ++to 0.000262299
Heightened Def Con from 0.000262299 +to 0.000262299
Heightened Def Con from 0.000262299 to 0.000262299
Heightened Def Con from 0.000262299 to 0.000262299
Heightened Def Con from 0.000262299 ++to 0.000262299
Heightened Def Con from 0.000262299 to 0.000262299
Heightened Def Con from 0.000262796 to 0.000262796
Heightened Def Con from 0.000262796 to 0.000262796
Heightened Def Con from 0.000262796 to 0.000262796
Heightened Def Con from 0.000263796 to 0.000263796
Heightened Def Con from 0.000264299 to 0.000264299
Heightened Def Con from 0.000264299 to 0.000264299
Heightened Def Con from 0.000266299 to 0.000266299
Heightened Def Con from 0.000268299 to 0.000268299
Heightened Def Con from 0.000268299 ++++to 0.000268299
Heightened Def Con from 0.000268299 to 0.000268299
Heightened Def Con from 0.000270796 +++to 0.000270796
Heightened Def Con from 0.000270796 to 0.000270796
Heightened Def Con from 0.000271299 +to 0.000271299
Heightened Def Con from 0.000271299 +++to 0.000271299
Heightened Def Con from 0.000272299 to 0.000272299
Heightened Def Con from 0.000272299 to 0.000272299
Heightened Def Con from 0.000272299 to 0.000272299
Heightened Def Con from 0.000272299 to 0.000272299
Heightened Def Con from 0.000272299 to 0.000272299
Heightened Def Con from 0.000274796 ++to 0.000274796
Heightened Def Con from 0.000274796 to 0.000274796
Heightened Def Con from 0.000275796 to 0.000275796
Heightened Def Con from 0.000275796 to 0.000275796
Heightened Def Con from 0.000275796 to 0.000275796
Heightened Def Con from 0.000277299 +++to 0.000277299
Heightened Def Con from 0.000277658 to 0.000277658
Heightened Def Con from 0.000277796 to 0.000277796
Heightened Def Con from 0.000279299 to 0.000279299
Heightened Def Con from 0.000280796 to 0.000280796
Heightened Def Con from 0.000283299 to 0.000283299
Heightened Def Con from 0.000283299 to 0.000283299
Heightened Def Con from 0.000283299 to 0.000283299
Heightened Def Con from 0.000283796 to 0.000283796
Heightened Def Con from 0.000284299 to 0.000284299
Heightened Def Con from 0.000284299 to 0.000284299
Heightened Def Con from 0.000284299 to 0.000284299
Heightened Def Con from 0.000284796 to 0.000284796
Heightened Def Con from 0.000284796 to 0.000284796
Heightened Def Con from 0.000286299 to 0.000286299
Heightened Def Con from 0.000286796 to 0.000286796
Heightened Def Con from 0.000286796 to 0.000286796
Heightened Def Con from 0.000286796 to 0.000286796
Heightened Def Con from 0.000288299 to 0.000288299
Heightened Def Con from 0.000288796 +to 0.000288796
Heightened Def Con from 0.000288796 to 0.000288796
Heightened Def Con from 0.000290796 to 0.000290796
Heightened Def Con from 0.000291796 to 0.000291796
Heightened Def Con from 0.000292299 to 0.000292299
Heightened Def Con from 0.000293299 to 0.000293299
Heightened Def Con from 0.000293796 ++to 0.000293796
Heightened Def Con from 0.000293796 to 0.000293796
Heightened Def Con from 0.000294796 to 0.000294796
Heightened Def Con from 0.000294796 to 0.000294796
Heightened Def Con from 0.000295796 to 0.000295796
Heightened Def Con from 0.000297299 to 0.000297299
Heightened Def Con from 0.000297796 to 0.000297796
Heightened Def Con from 0.000297796 to 0.000297796
Heightened Def Con from 0.000297796 to 0.000297796
Heightened Def Con from 0.000298299 to 0.000298299
Heightened Def Con from 0.000298796 to 0.000298796
Heightened Def Con from 0.000299796 to 0.000299796
Heightened Def Con from 0.000299796 to 0.000299796
Heightened Def Con from 0.000299796 to 0.000299796
Heightened Def Con from 0.000301658 to 0.000301658
Heightened Def Con from 0.000301796 to 0.000301796
Heightened Def Con from 0.000301796 to 0.000301796
Heightened Def Con from 0.000303299 to 0.000303299
Heightened Def Con from 0.000303299 to 0.000303299
Heightened Def Con from 0.000303299 to 0.000303299
Heightened Def Con from 0.000303299 ++++to 0.000303299
Heightened Def Con from 0.000305299 to 0.000305299
Heightened Def Con from 0.000305299 to 0.000305299
Heightened Def Con from 0.000305796 to 0.000305796
Heightened Def Con from 0.000306299 ++++to 0.000306299
Heightened Def Con from 0.000307299 to 0.000307299
Heightened Def Con from 0.000307299 to 0.000307299
Heightened Def Con from 0.000307796 to 0.000307796
Heightened Def Con from 0.000308299 ++to 0.000308299
Heightened Def Con from 0.000308299 to 0.000308299
Heightened Def Con from 0.000308796 +++to 0.000308796
Heightened Def Con from 0.000308796 to 0.000308796
Heightened Def Con from 0.000308796 to 0.000308796
Heightened Def Con from 0.000308796 to 0.000308796
Heightened Def Con from 0.000308796 to 0.000308796
Heightened Def Con from 0.000309299 to 0.000309299
Heightened Def Con from 0.000309796 ++to 0.000309796
Heightened Def Con from 0.000310299 +to 0.000310299
Heightened Def Con from 0.000310299 +to 0.000310299
Heightened Def Con from 0.000310299 +++to 0.000310299
Heightened Def Con from 0.000311299 to 0.000311299
Heightened Def Con from 0.000311299 to 0.000311299
Heightened Def Con from 0.000311299 to 0.000311299
Heightened Def Con from 0.000311299 to 0.000311299
Heightened Def Con from 0.000311796 to 0.000311796
Heightened Def Con from 0.000311796 to 0.000311796
Heightened Def Con from 0.000311796 to 0.000311796
Heightened Def Con from 0.000311796 to 0.000311796
Heightened Def Con from 0.000313796 ++to 0.000313796
Heightened Def Con from 0.000313796 to 0.000313796
Heightened Def Con from 0.000313796 to 0.000313796
Heightened Def Con from 0.000314299 to 0.000314299
Heightened Def Con from 0.000314299 to 0.000314299
Heightened Def Con from 0.000315299 to 0.000315299
Heightened Def Con from 0.000315299 to 0.000315299
Heightened Def Con from 0.000315796 to 0.000315796
Heightened Def Con from 0.000316299 to 0.000316299
Heightened Def Con from 0.000317299 to 0.000317299
Heightened Def Con from 0.000318796 to 0.000318796
Heightened Def Con from 0.000318796 to 0.000318796
Heightened Def Con from 0.000318796 to 0.000318796
Heightened Def Con from 0.000319299 +to 0.000319299
Heightened Def Con from 0.000319299 to 0.000319299
Heightened Def Con from 0.000319299 ++to 0.000319299
Heightened Def Con from 0.000319299 +to 0.000319299
Heightened Def Con from 0.000319299 +++++to 0.000319299
Heightened Def Con from 0.000319796 to 0.000319796
Heightened Def Con from 0.000320299 to 0.000320299
Heightened Def Con from 0.000320299 to 0.000320299
Heightened Def Con from 0.000320299 +++to 0.000320299
Heightened Def Con from 0.000320796 to 0.000320796
Heightened Def Con from 0.000321298 to 0.000321301
Heightened Def Con from 0.000322298 ++++to 0.000322298
Heightened Def Con from 0.000322298 +++to 0.000322298
Heightened Def Con from 0.000322796 to 0.000322796
Heightened Def Con from 0.000322796 to 0.000322796
Heightened Def Con from 0.000323796 to 0.000323796
Heightened Def Con from 0.000324232 to 0.000324232
Heightened Def Con from 0.000324298 to 0.000324298
Heightened Def Con from 0.000324298 to 0.000324298
Heightened Def Con from 0.000326298 to 0.000326301
Heightened Def Con from 0.000328298 +to 0.000328298
Heightened Def Con from 0.000328298 to 0.000328298
Heightened Def Con from 0.000329232 to 0.000329232
Heightened Def Con from 0.000329232 to 0.000329232
Heightened Def Con from 0.000330796 to 0.000330796
Heightened Def Con from 0.000330796 to 0.000330796
Heightened Def Con from 0.000330796 +++to 0.000330796
Heightened Def Con from 0.000330796 to 0.000330796
Heightened Def Con from 0.000331796 to 0.000331796
Heightened Def Con from 0.000332796 to 0.000332796
Heightened Def Con from 0.000332796 to 0.000332796
Heightened Def Con from 0.000334796 ++++to 0.000334796
Heightened Def Con from 0.000334796 ++++to 0.000334796
Heightened Def Con from 0.000335298 to 0.000335298
Heightened Def Con from 0.000335298 to 0.000335298
Heightened Def Con from 0.000336298 to 0.000336298
Heightened Def Con from 0.000336796 to 0.000336796
Heightened Def Con from 0.000337298 +++++to 0.000337298
Heightened Def Con from 0.000338796 to 0.000338796
Heightened Def Con from 0.000339298 to 0.000339298
Heightened Def Con from 0.000339298 to 0.000339298
Heightened Def Con from 0.000339298 to 0.000339298
Heightened Def Con from 0.000339298 to 0.000339298
Heightened Def Con from 0.000339298 to 0.000339298
Heightened Def Con from 0.000339298 to 0.000339298
Heightened Def Con from 0.000339298 +++to 0.000339298
Heightened Def Con from 0.000339796 ++++to 0.000339796
Heightened Def Con from 0.000340796 to 0.000340796
Heightened Def Con from 0.000340796 to 0.000340796
Heightened Def Con from 0.000340796 ++to 0.000340796
Heightened Def Con from 0.000342796 ++to 0.000342796
Heightened Def Con from 0.000343298 to 0.000343298
Heightened Def Con from 0.000343796 +++to 0.000343796
Heightened Def Con from 0.000343796 to 0.000343796
Heightened Def Con from 0.000343796 to 0.000343796
Heightened Def Con from 0.000344796 to 0.000344796
Heightened Def Con from 0.000344796 +to 0.000344796
Heightened Def Con from 0.000344796 +++to 0.000344796
Heightened Def Con from 0.000344796 to 0.000344796
Heightened Def Con from 0.000344796 to 0.000344796
Heightened Def Con from 0.000345298 to 0.000345298
Heightened Def Con from 0.000345658 to 0.000345658
Heightened Def Con from 0.000345796 +++to 0.000345796
Heightened Def Con from 0.000347298 to 0.000347298
Heightened Def Con from 0.000347796 ++to 0.000347796
Heightened Def Con from 0.000347796 to 0.000347796
Heightened Def Con from 0.000348298 to 0.000348298
Heightened Def Con from 0.000348298 to 0.000348298
Heightened Def Con from 0.000348298 to 0.000348298
Heightened Def Con from 0.000348298 to 0.000348298
Heightened Def Con from 0.000349298 to 0.000349298
Heightened Def Con from 0.000349298 to 0.000349298
Heightened Def Con from 0.000349796 to 0.000349796
Heightened Def Con from 0.000349796 to 0.000349796
Heightened Def Con from 0.000351298 to 0.000351298
Heightened Def Con from 0.000351298 to 0.000351298
Heightened Def Con from 0.000352298 ++++to 0.000352298
Heightened Def Con from 0.000353298 to 0.000353298
Heightened Def Con from 0.000355298 to 0.000355298
Heightened Def Con from 0.000355658 to 0.000355658
Heightened Def Con from 0.000355658 to 0.000355658
Heightened Def Con from 0.000355796 to 0.000355796
Heightened Def Con from 0.000356796 to 0.000356796
Heightened Def Con from 0.000356796 to 0.000356796
Heightened Def Con from 0.000357658 to 0.000357658
Heightened Def Con from 0.000357796 to 0.000357796
Heightened Def Con from 0.000357796 to 0.000357796
Heightened Def Con from 0.000358298 +++to 0.000358298
Heightened Def Con from 0.000358298 to 0.000358298
Heightened Def Con from 0.000359298 to 0.000359298
Heightened Def Con from 0.000359796 to 0.000359796
Heightened Def Con from 0.000360796 to 0.000360796
Heightened Def Con from 0.000360796 to 0.000360796
Heightened Def Con from 0.000361298 to 0.000361298
Heightened Def Con from 0.000361298 to 0.000361298
Heightened Def Con from 0.000362298 to 0.000362298
Heightened Def Con from 0.000362796 to 0.000362796
Heightened Def Con from 0.000362796 +++to 0.000362796
Heightened Def Con from 0.000362796 +to 0.000362796
Heightened Def Con from 0.000363298 to 0.000363298
Heightened Def Con from 0.000363796 to 0.000363796
Heightened Def Con from 0.000365796 to 0.000365796
Heightened Def Con from 0.000365796 to 0.000365796
Heightened Def Con from 0.000366796 to 0.000366796
Heightened Def Con from 0.000367298 to 0.000367298
Heightened Def Con from 0.000367298 to 0.000367298
Heightened Def Con from 0.000367298 to 0.000367298
Heightened Def Con from 0.000367298 to 0.000367298
Heightened Def Con from 0.000367298 to 0.000367298
Heightened Def Con from 0.000368298 to 0.000368298
Heightened Def Con from 0.000368298 ++++to 0.000368298
Heightened Def Con from 0.000369298 to 0.000369298
Heightened Def Con from 0.000369796 to 0.000369796
Heightened Def Con from 0.000369796 +to 0.000369796
Heightened Def Con from 0.000370298 to 0.000370298
Heightened Def Con from 0.000370796 to 0.000370796
Heightened Def Con from 0.000370796 +++to 0.000370796
Heightened Def Con from 0.000372796 to 0.000372796
Heightened Def Con from 0.000373796 to 0.000373796
Heightened Def Con from 0.000374796 to 0.000374796
Heightened Def Con from 0.000374796 to 0.000374796
Heightened Def Con from 0.000374796 to 0.000374796
Heightened Def Con from 0.000375796 +to 0.000375796
Heightened Def Con from 0.000375796 +++to 0.000375796
Heightened Def Con from 0.000376796 +++to 0.000376796
Heightened Def Con from 0.000376796 to 0.000376796
Heightened Def Con from 0.000376796 +++++to 0.000376796
Heightened Def Con from 0.000377796 to 0.000377796
Heightened Def Con from 0.000377796 to 0.000377796
Heightened Def Con from 0.000377796 to 0.000377796
Heightened Def Con from 0.000377796 to 0.000377796
Heightened Def Con from 0.000377796 to 0.000377796
Heightened Def Con from 0.000377796 to 0.000377796
Heightened Def Con from 0.000377796 to 0.000377796
Heightened Def Con from 0.000377796 to 0.000377796
Heightened Def Con from 0.000377796 to 0.000377796
Heightened Def Con from 0.000378298 to 0.000378298
Heightened Def Con from 0.000378298 to 0.000378298
Heightened Def Con from 0.000379796 to 0.000379796
Heightened Def Con from 0.000379796 to 0.000379796
Heightened Def Con from 0.000380298 ++++to 0.000380298
Heightened Def Con from 0.000380796 to 0.000380796
Heightened Def Con from 0.000380796 ++++to 0.000380796
Heightened Def Con from 0.000381298 to 0.000381298
Heightened Def Con from 0.000381796 to 0.000381796
Heightened Def Con from 0.000382796 to 0.000382796
Heightened Def Con from 0.000382796 to 0.000382796
Heightened Def Con from 0.000382796 +to 0.000382796
Heightened Def Con from 0.000382796 to 0.000382796
Heightened Def Con from 0.000382796 to 0.000382796
Heightened Def Con from 0.000382796 +++to 0.000382796
Heightened Def Con from 0.000383298 ++to 0.000383298
Heightened Def Con from 0.000383298 to 0.000383298
Heightened Def Con from 0.000384298 +to 0.000384298
Heightened Def Con from 0.000384298 to 0.000384298
Heightened Def Con from 0.000384796 +++to 0.000384796
Heightened Def Con from 0.000384796 to 0.000384796
Heightened Def Con from 0.000385298 to 0.000385298
Heightened Def Con from 0.000385298 +++to 0.000385298
Heightened Def Con from 0.000386298 to 0.000386298
Heightened Def Con from 0.000386796 to 0.000386796
Heightened Def Con from 0.000386796 to 0.000386796
Heightened Def Con from 0.000387298 to 0.000387298
Heightened Def Con from 0.000387298 ++to 0.000387298
Heightened Def Con from 0.000387298 to 0.000387298
Heightened Def Con from 0.000388796 to 0.000388796
Heightened Def Con from 0.000388796 ++to 0.000388796
Heightened Def Con from 0.000389796 +++to 0.000389796
Heightened Def Con from 0.000389796 +to 0.000389796
Heightened Def Con from 0.000389796 to 0.000389796
Heightened Def Con from 0.000389796 +to 0.000389796
Heightened Def Con from 0.000391298 to 0.000391298
Heightened Def Con from 0.000392298 to 0.000392298
Heightened Def Con from 0.000392298 to 0.000392298
Heightened Def Con from 0.000392658 to 0.000392658
Heightened Def Con from 0.000395298 ++++to 0.000395298
Heightened Def Con from 0.000395298 to 0.000395298
Heightened Def Con from 0.000395298 to 0.000395298
Heightened Def Con from 0.000395298 to 0.000395298
Heightened Def Con from 0.000395298 to 0.000395298
Heightened Def Con from 0.000395298 +++++to 0.000395298
Heightened Def Con from 0.000395298 ++to 0.000395298
Heightened Def Con from 0.000395796 ++to 0.000395796
Heightened Def Con from 0.000397298 to 0.000397298
Heightened Def Con from 0.000397796 to 0.000397796
Heightened Def Con from 0.000397796 to 0.000397796
Heightened Def Con from 0.000397796 to 0.000397796
Heightened Def Con from 0.000398298 to 0.000398298
Heightened Def Con from 0.000398796 to 0.000398796
Heightened Def Con from 0.000398796 to 0.000398796
Heightened Def Con from 0.000398796 to 0.000398796
Heightened Def Con from 0.000398796 to 0.000398796
Heightened Def Con from 0.000398796 to 0.000398796
Heightened Def Con from 0.000399298 to 0.000399298
Heightened Def Con from 0.000400796 to 0.000400796
Heightened Def Con from 0.000401796 to 0.000401796
Heightened Def Con from 0.000401796 to 0.000401796
Heightened Def Con from 0.000401796 +++to 0.000401796
Heightened Def Con from 0.000401796 ++++to 0.000401796
Heightened Def Con from 0.000401796 to 0.000401796
Heightened Def Con from 0.000402796 to 0.000402796
Heightened Def Con from 0.000402796 to 0.000402796
Heightened Def Con from 0.000403298 to 0.000403298
Heightened Def Con from 0.000404796 +++to 0.000404796
Heightened Def Con from 0.000405298 to 0.000405298
Heightened Def Con from 0.000405298 to 0.000405298
Heightened Def Con from 0.000405298 to 0.000405298
Heightened Def Con from 0.000405298 to 0.000405298
Heightened Def Con from 0.000405298 to 0.000405298
Heightened Def Con from 0.000405658 to 0.000405658
Heightened Def Con from 0.000406796 to 0.000406796
Heightened Def Con from 0.000407298 +to 0.000407298
Heightened Def Con from 0.000407298 to 0.000407298
Heightened Def Con from 0.000408796 to 0.000408799
Heightened Def Con from 0.000409796 to 0.000409796
Heightened Def Con from 0.000409796 to 0.000409796
Heightened Def Con from 0.000409796 to 0.000409796
Heightened Def Con from 0.000410298 to 0.000410298
Heightened Def Con from 0.000410298 ++++to 0.000410298
Heightened Def Con from 0.000410298 to 0.000410298
Heightened Def Con from 0.000410796 to 0.000410796
Heightened Def Con from 0.000412232 to 0.000412232
Heightened Def Con from 0.000412232 to 0.000412232
Heightened Def Con from 0.000412796 to 0.000412796
Heightened Def Con from 0.000413298 to 0.000413298
Heightened Def Con from 0.000413298 to 0.000413298
Heightened Def Con from 0.000413796 to 0.000413796
Heightened Def Con from 0.000413796 to 0.000413796
Heightened Def Con from 0.000414298 to 0.000414298
Heightened Def Con from 0.000414298 to 0.000414298
Heightened Def Con from 0.000414298 to 0.000414298
Heightened Def Con from 0.000414298 to 0.000414298
Heightened Def Con from 0.000414298 to 0.000414298
Heightened Def Con from 0.000414298 to 0.000414298
Heightened Def Con from 0.000414796 to 0.000414796
Heightened Def Con from 0.000414796 to 0.000414796
Heightened Def Con from 0.000414796 ++to 0.000414796
Heightened Def Con from 0.000414796 to 0.000414796
Heightened Def Con from 0.000414796 to 0.000414796
Heightened Def Con from 0.000415298 to 0.000415298
Heightened Def Con from 0.000416796 +++to 0.000416796
Heightened Def Con from 0.000416796 to 0.000416796
Heightened Def Con from 0.000417298 to 0.000417298
Heightened Def Con from 0.000418232 to 0.000418232
Heightened Def Con from 0.000418298 to 0.000418298
Heightened Def Con from 0.000418796 ++to 0.000418796
Heightened Def Con from 0.000418796 ++to 0.000418796
Heightened Def Con from 0.000418796 to 0.000418796
Heightened Def Con from 0.000420658 to 0.000420658
Heightened Def Con from 0.000420658 to 0.000420658
Heightened Def Con from 0.000420796 to 0.000420796
Heightened Def Con from 0.000421658 to 0.000421658
Heightened Def Con from 0.000421796 ++to 0.000421796
Heightened Def Con from 0.000421796 to 0.000421796
Heightened Def Con from 0.000421796 to 0.000421796
Heightened Def Con from 0.000421796 to 0.000421796
Heightened Def Con from 0.000421796 to 0.000421796
Heightened Def Con from 0.000422298 to 0.000422298
Heightened Def Con from 0.000422796 to 0.000422796
Heightened Def Con from 0.000423298 +++to 0.000423298
Heightened Def Con from 0.000424658 to 0.000424658
Heightened Def Con from 0.000424796 to 0.000424796
Heightened Def Con from 0.000425796 to 0.000425796
Heightened Def Con from 0.000425796 to 0.000425796
Heightened Def Con from 0.000426796 to 0.000426796
Heightened Def Con from 0.000427796 to 0.000427796
Heightened Def Con from 0.000427796 to 0.000427796
Heightened Def Con from 0.000427796 to 0.000427796
Heightened Def Con from 0.000427796 to 0.000427797
Heightened Def Con from 0.000428232 to 0.000428232
Heightened Def Con from 0.000428298 to 0.000428298
Heightened Def Con from 0.000428298 to 0.000428298
Heightened Def Con from 0.000428298 to 0.000428298
Heightened Def Con from 0.000428796 to 0.000428796
Heightened Def Con from 0.000428796 to 0.000428796
Heightened Def Con from 0.000429298 to 0.000429298
Heightened Def Con from 0.000429298 to 0.000429298
Heightened Def Con from 0.000430796 to 0.000430796
Heightened Def Con from 0.000431298 to 0.000431298
Heightened Def Con from 0.000431796 ++++to 0.000431796
Heightened Def Con from 0.000431796 to 0.000431796
Heightened Def Con from 0.000432796 to 0.000432796
Heightened Def Con from 0.000433796 to 0.000433796
Heightened Def Con from 0.000434298 +to 0.000434298
Heightened Def Con from 0.000434298 +++to 0.000434298
Heightened Def Con from 0.000434298 +to 0.000434298
Heightened Def Con from 0.000434298 to 0.000434298
Heightened Def Con from 0.000434298 to 0.000434298
Heightened Def Con from 0.000435232 to 0.000435232
Heightened Def Con from 0.000435232 to 0.000435232
Heightened Def Con from 0.000435232 to 0.000435232
Heightened Def Con from 0.000435232 to 0.000435232
Heightened Def Con from 0.000435298 to 0.000435298
Heightened Def Con from 0.000436232 to 0.000436232
Heightened Def Con from 0.000436796 to 0.000436796
Heightened Def Con from 0.000437796 to 0.000437796
Heightened Def Con from 0.000437796 to 0.000437796
Heightened Def Con from 0.000437796 +++to 0.000437796
Heightened Def Con from 0.000438796 +to 0.000438796
Heightened Def Con from 0.000438796 to 0.000438796
Heightened Def Con from 0.000439658 to 0.000439658
Heightened Def Con from 0.000441297 to 0.000441297
Heightened Def Con from 0.000442297 to 0.000442297
Heightened Def Con from 0.000443297 to 0.000443297
Heightened Def Con from 0.000443297 +++to 0.000443297
Heightened Def Con from 0.000443796 to 0.000443796
Heightened Def Con from 0.000444297 to 0.000444297
Heightened Def Con from 0.000444796 to 0.000444796
Heightened Def Con from 0.000444796 ++to 0.000444796
Heightened Def Con from 0.000444796 to 0.000444796
Heightened Def Con from 0.000444796 +++to 0.000444796
Heightened Def Con from 0.000444796 to 0.000444796
Heightened Def Con from 0.000445297 +to 0.000445297
Heightened Def Con from 0.000445297 to 0.000445297
Heightened Def Con from 0.000445796 to 0.000445796
Heightened Def Con from 0.000445796 to 0.000445796
Heightened Def Con from 0.000446297 to 0.000446297
Heightened Def Con from 0.000446297 to 0.000446297
Heightened Def Con from 0.000446297 to 0.000446297
Heightened Def Con from 0.000446297 to 0.000446297
Heightened Def Con from 0.000446297 to 0.000446297
Heightened Def Con from 0.000446796 to 0.000446796
Heightened Def Con from 0.000446796 ++to 0.000446796
Heightened Def Con from 0.000446796 +++to 0.000446796
Heightened Def Con from 0.000447796 to 0.000447796
Heightened Def Con from 0.000447796 to 0.000447796
Heightened Def Con from 0.000447796 to 0.000447796
Heightened Def Con from 0.000448796 to 0.000448796
Heightened Def Con from 0.000450297 to 0.000450297
Heightened Def Con from 0.000451297 to 0.000451297
Heightened Def Con from 0.000451297 to 0.000451297
Heightened Def Con from 0.000451297 +++to 0.000451297
Heightened Def Con from 0.000451297 to 0.000451297
Heightened Def Con from 0.000451796 to 0.000451796
Heightened Def Con from 0.000451796 to 0.000451796
Heightened Def Con from 0.000452796 to 0.000452796
Heightened Def Con from 0.000453297 to 0.000453297
Heightened Def Con from 0.000453297 to 0.000453297
Heightened Def Con from 0.000453796 to 0.000453796
Heightened Def Con from 0.000453796 to 0.000453796
Heightened Def Con from 0.000453796 to 0.000453797
Heightened Def Con from 0.000454658 to 0.000454658
Heightened Def Con from 0.000454658 to 0.000454658
Heightened Def Con from 0.000454658 to 0.000454658
Heightened Def Con from 0.000454796 to 0.000454796
Heightened Def Con from 0.000455297 +to 0.000455297
Heightened Def Con from 0.000455297 +++to 0.000455297
Heightened Def Con from 0.000455297 to 0.000455297
Heightened Def Con from 0.000455796 to 0.000455796
Heightened Def Con from 0.000456658 to 0.000456658
Heightened Def Con from 0.000457297 +to 0.000457297
Heightened Def Con from 0.000457297 to 0.000457297
Heightened Def Con from 0.000457297 +++to 0.000457297
Heightened Def Con from 0.000458297 to 0.000458297
Heightened Def Con from 0.000458297 to 0.000458297
Heightened Def Con from 0.000458796 +++to 0.000458796
Heightened Def Con from 0.000458796 to 0.000458796
Heightened Def Con from 0.000460297 to 0.000460297
Heightened Def Con from 0.000461297 to 0.000461297
Heightened Def Con from 0.000462297 to 0.000462297
Heightened Def Con from 0.000462796 to 0.000462796
Heightened Def Con from 0.000463297 to 0.000463297
Heightened Def Con from 0.000463297 ++++to 0.000463297
Heightened Def Con from 0.000463796 +++to 0.000463796
Heightened Def Con from 0.000464232 to 0.000464232
Heightened Def Con from 0.000464297 to 0.000464297
Heightened Def Con from 0.000464297 to 0.000464297
Heightened Def Con from 0.000464297 to 0.000464297
Heightened Def Con from 0.000464297 to 0.000464297
Heightened Def Con from 0.000464297 to 0.000464297
Heightened Def Con from 0.000464796 +++to 0.000464796
Heightened Def Con from 0.000464796 to 0.000464796
Heightened Def Con from 0.000465796 +++to 0.000465796
Heightened Def Con from 0.000465796 to 0.000465796
Heightened Def Con from 0.000465796 to 0.000465796
Heightened Def Con from 0.000466796 to 0.000466796
Heightened Def Con from 0.000466796 to 0.000466796
Heightened Def Con from 0.000469297 to 0.000469297
Heightened Def Con from 0.000470297 ++++to 0.000470297
Heightened Def Con from 0.000470297 to 0.000470297
Heightened Def Con from 0.000470297 to 0.000470297
Heightened Def Con from 0.000470796 to 0.000470796
Heightened Def Con from 0.000470796 to 0.000470796
Heightened Def Con from 0.000471297 ++to 0.000471297
Heightened Def Con from 0.000471297 to 0.000471297
Heightened Def Con from 0.000472297 ++to 0.000472297
Heightened Def Con from 0.000472796 to 0.000472796
Heightened Def Con from 0.000473297 to 0.000473297
Heightened Def Con from 0.000473796 to 0.000473796
Heightened Def Con from 0.000473796 to 0.000473796
Heightened Def Con from 0.000473796 to 0.000473796
Heightened Def Con from 0.000474796 +++to 0.000474796
Heightened Def Con from 0.000474796 to 0.000474796
Heightened Def Con from 0.000475796 to 0.000475796
Heightened Def Con from 0.000476796 to 0.000476796
Heightened Def Con from 0.000476796 to 0.000476796
Heightened Def Con from 0.000477297 to 0.000477297
Heightened Def Con from 0.000477297 to 0.000477297
Heightened Def Con from 0.000478297 to 0.000478297
Heightened Def Con from 0.000478297 to 0.000478297
Heightened Def Con from 0.000480297 +++to 0.000480297
Heightened Def Con from 0.000481297 +to 0.000481297
Heightened Def Con from 0.000481297 to 0.000481297
Heightened Def Con from 0.000482796 to 0.000482796
Heightened Def Con from 0.000482796 to 0.000482796
Heightened Def Con from 0.000482796 to 0.000482796
Heightened Def Con from 0.000483297 ++to 0.000483297
Heightened Def Con from 0.000483297 to 0.000483297
Heightened Def Con from 0.000484297 ++to 0.000484297
Heightened Def Con from 0.000484297 to 0.000484297
Heightened Def Con from 0.000484796 to 0.000484796
Heightened Def Con from 0.000485297 to 0.000485297
Heightened Def Con from 0.000485796 to 0.000485796
Heightened Def Con from 0.000485796 to 0.000485797
Heightened Def Con from 0.000486297 to 0.000486297
Heightened Def Con from 0.000486297 to 0.000486297
Heightened Def Con from 0.000486796 +++to 0.000486796
Heightened Def Con from 0.000488297 to 0.000488297
Heightened Def Con from 0.000488297 to 0.000488297
Heightened Def Con from 0.000489658 to 0.000489658
Heightened Def Con from 0.000489658 to 0.000489658
Heightened Def Con from 0.000492297 to 0.000492297
Heightened Def Con from 0.000492796 to 0.000492796
Heightened Def Con from 0.000492796 to 0.000492796
Heightened Def Con from 0.000493232 to 0.000493232
Heightened Def Con from 0.000494232 to 0.000494232
Heightened Def Con from 0.000494232 to 0.000494232
Heightened Def Con from 0.000494232 to 0.000494232
Heightened Def Con from 0.000498297 to 0.000498297
Heightened Def Con from 0.000498297 +++to 0.000498297
Heightened Def Con from 0.000499297 ++to 0.000499297
Heightened Def Con from 0.000500796 to 0.000500796
Heightened Def Con from 0.000500796 +++to 0.000500796
Heightened Def Con from 0.000500796 to 0.000500796
Heightened Def Con from 0.000503658 to 0.000503658
Heightened Def Con from 0.000504796 to 0.000504796
Heightened Def Con from 0.000505297 +to 0.000505297
Heightened Def Con from 0.000505297 to 0.000505297
Heightened Def Con from 0.000505796 to 0.000505796
Heightened Def Con from 0.000505796 to 0.000505796
Heightened Def Con from 0.000507297 to 0.000507297
Heightened Def Con from 0.000508796 +to 0.000508796
Heightened Def Con from 0.000508796 to 0.000508796
Heightened Def Con from 0.000508796 to 0.000508796
Heightened Def Con from 0.000508796 to 0.000508796
Heightened Def Con from 0.000510232 to 0.000510232
Heightened Def Con from 0.000510297 to 0.000510297
Heightened Def Con from 0.000511297 to 0.000511297
Heightened Def Con from 0.000511297 ++++to 0.000511297
Heightened Def Con from 0.000511297 to 0.000511297
Heightened Def Con from 0.000511796 to 0.000511796
Heightened Def Con from 0.000511796 to 0.000511796
Heightened Def Con from 0.000511796 to 0.000511796
Heightened Def Con from 0.000514297 to 0.000514297
Heightened Def Con from 0.000514297 to 0.000514297
Heightened Def Con from 0.000514297 to 0.000514297
Heightened Def Con from 0.000516297 to 0.000516297
Heightened Def Con from 0.000516297 to 0.000516297
Heightened Def Con from 0.000517297 to 0.000517297
Heightened Def Con from 0.000518297 to 0.000518297
Heightened Def Con from 0.000519232 to 0.000519232
Heightened Def Con from 0.000519232 to 0.000519232
Heightened Def Con from 0.000521297 to 0.000521297
Heightened Def Con from 0.000521796 ++to 0.000521796
Heightened Def Con from 0.000521796 to 0.000521796
Heightened Def Con from 0.000521796 +to 0.000521796
Heightened Def Con from 0.000522658 to 0.000522658
Heightened Def Con from 0.000522658 to 0.000522658
Heightened Def Con from 0.000523297 to 0.000523297
Heightened Def Con from 0.000523297 to 0.000523297
Heightened Def Con from 0.000523796 ++to 0.000523796
Heightened Def Con from 0.000523796 to 0.000523796
Heightened Def Con from 0.000524297 to 0.000524297
Heightened Def Con from 0.000524297 to 0.000524297
Heightened Def Con from 0.000524796 to 0.000524796
Heightened Def Con from 0.000525232 to 0.000525232
Heightened Def Con from 0.000525297 to 0.000525297
Heightened Def Con from 0.000526297 to 0.000526297
Heightened Def Con from 0.000527232 to 0.000527232
Heightened Def Con from 0.000527297 to 0.000527297
Heightened Def Con from 0.000529796 +to 0.000529796
Heightened Def Con from 0.000529796 to 0.000529796
Heightened Def Con from 0.000530796 to 0.000530796
Heightened Def Con from 0.000530796 to 0.000530796
Heightened Def Con from 0.000530796 to 0.000530796
Heightened Def Con from 0.000531297 to 0.000531297
Heightened Def Con from 0.000531297 to 0.000531297
Heightened Def Con from 0.000531297 +to 0.000531297
Heightened Def Con from 0.000531297 to 0.000531297
Heightened Def Con from 0.000531297 ++++++to 0.000531297
Heightened Def Con from 0.000531796 to 0.000531796
Heightened Def Con from 0.000532232 to 0.000532232
Heightened Def Con from 0.000532297 to 0.000532297
Heightened Def Con from 0.000532297 to 0.000532297
Heightened Def Con from 0.000532297 to 0.000532297
Heightened Def Con from 0.000533232 to 0.000533232
Heightened Def Con from 0.000533297 to 0.000533297
Heightened Def Con from 0.000533297 to 0.000533298
Heightened Def Con from 0.000534796 to 0.000534796
Heightened Def Con from 0.000534796 to 0.000534796
Heightened Def Con from 0.000536796 to 0.000536796
Heightened Def Con from 0.000536796 to 0.000536796
Heightened Def Con from 0.000537297 to 0.000537297
Heightened Def Con from 0.000537297 to 0.000537297
Heightened Def Con from 0.000537796 to 0.000537796
Heightened Def Con from 0.000537796 +++to 0.000537796
Heightened Def Con from 0.000537796 to 0.000537796
Heightened Def Con from 0.000537796 to 0.000537796
Heightened Def Con from 0.000537796 to 0.000537796
Heightened Def Con from 0.000537796 to 0.000537796
Heightened Def Con from 0.000537796 to 0.000537796
Heightened Def Con from 0.000537796 to 0.000537796
Heightened Def Con from 0.000537796 to 0.000537796
Heightened Def Con from 0.000537796 to 0.000537796
Heightened Def Con from 0.000537796 to 0.000537796
Heightened Def Con from 0.000537796 to 0.000537796
Heightened Def Con from 0.000537796 to 0.000537796
Heightened Def Con from 0.000537796 to 0.000537796
Heightened Def Con from 0.000538297 to 0.000538297
Heightened Def Con from 0.000539796 to 0.000539796
Heightened Def Con from 0.000540796 to 0.000540796
Heightened Def Con from 0.000540796 +to 0.000540796
Heightened Def Con from 0.000541796 to 0.000541796
Heightened Def Con from 0.000541796 +to 0.000541796
Heightened Def Con from 0.000541796 ++++to 0.000541796
Heightened Def Con from 0.000541796 to 0.000541796
Heightened Def Con from 0.000541796 to 0.000541796
Heightened Def Con from 0.000541796 to 0.000541796
Heightened Def Con from 0.000543297 to 0.000543297
Heightened Def Con from 0.000544796 to 0.000544799
Heightened Def Con from 0.000545796 to 0.000545796
Heightened Def Con from 0.000546297 to 0.000546297
Heightened Def Con from 0.000547232 to 0.000547232
Heightened Def Con from 0.000547796 to 0.000547796
Heightened Def Con from 0.000549297 +to 0.000549297
Heightened Def Con from 0.000549297 +++to 0.000549297
Heightened Def Con from 0.000549796 to 0.000549796
Heightened Def Con from 0.000550297 to 0.000550297
Heightened Def Con from 0.000550297 to 0.000550297
Heightened Def Con from 0.000550796 to 0.000550796
Heightened Def Con from 0.000551297 to 0.000551297
Heightened Def Con from 0.000552297 to 0.000552297
Heightened Def Con from 0.000552297 to 0.000552297
Heightened Def Con from 0.000552796 to 0.000552796
Heightened Def Con from 0.000553297 to 0.000553297
Heightened Def Con from 0.000553658 to 0.000553658
Heightened Def Con from 0.000553658 to 0.000553658
Heightened Def Con from 0.000553796 to 0.000553796
Heightened Def Con from 0.000554297 to 0.000554297
Heightened Def Con from 0.000554658 to 0.000554658
Heightened Def Con from 0.000556796 to 0.000556796
Heightened Def Con from 0.000556796 to 0.000556797
Heightened Def Con from 0.000558297 to 0.000558297
Heightened Def Con from 0.000559297 to 0.000559297
Heightened Def Con from 0.000560796 to 0.000560796
Heightened Def Con from 0.000560796 to 0.000560796
Heightened Def Con from 0.000561232 to 0.000561232
Heightened Def Con from 0.000561297 to 0.000561297
Heightened Def Con from 0.000561297 ++to 0.000561297
Heightened Def Con from 0.000562297 to 0.000562297
Heightened Def Con from 0.000562297 to 0.000562297
Heightened Def Con from 0.000562796 to 0.000562796
Heightened Def Con from 0.000563297 ++++to 0.000563297
Heightened Def Con from 0.000563796 +++to 0.000563796
Heightened Def Con from 0.000564796 to 0.000564796
Heightened Def Con from 0.000564796 to 0.000564796
Heightened Def Con from 0.000565297 to 0.000565297
Heightened Def Con from 0.000565796 to 0.000565796
Heightened Def Con from 0.000565796 to 0.000565796
Heightened Def Con from 0.000565796 to 0.000565796
Heightened Def Con from 0.000565796 to 0.000565796
Heightened Def Con from 0.000565796 to 0.000565796
Heightened Def Con from 0.000566297 to 0.000566297
Heightened Def Con from 0.000566297 +++to 0.000566297
Heightened Def Con from 0.000566297 to 0.000566297
Heightened Def Con from 0.000566297 to 0.000566297
Heightened Def Con from 0.000567297 +to 0.000567297
Heightened Def Con from 0.000567297 to 0.000567297
Heightened Def Con from 0.000568297 to 0.000568297
Heightened Def Con from 0.000568658 to 0.000568658
Heightened Def Con from 0.000570297 to 0.000570297
Heightened Def Con from 0.000570297 to 0.000570297
Heightened Def Con from 0.000570297 to 0.0005703
Heightened Def Con from 0.000570796 to 0.000570796
Heightened Def Con from 0.000570796 to 0.000570796
Heightened Def Con from 0.000571796 +to 0.000571796
Heightened Def Con from 0.000571796 ++++to 0.000571796
Heightened Def Con from 0.000571796 to 0.000571796
Heightened Def Con from 0.000572297 to 0.000572297
Heightened Def Con from 0.000572297 ++++to 0.000572297
Heightened Def Con from 0.000572796 to 0.000572796
Heightened Def Con from 0.000572796 to 0.000572796
Heightened Def Con from 0.000572796 to 0.000572796
Heightened Def Con from 0.000572796 to 0.000572796
Heightened Def Con from 0.000572796 to 0.000572796
Heightened Def Con from 0.000572796 to 0.000572796
Heightened Def Con from 0.000572796 to 0.000572796
Heightened Def Con from 0.000572796 to 0.000572796
Heightened Def Con from 0.000572796 to 0.000572796
Heightened Def Con from 0.000572796 to 0.000572796
Heightened Def Con from 0.000572796 to 0.000572796
Heightened Def Con from 0.000574796 to 0.000574796
Heightened Def Con from 0.000575297 to 0.000575297
Heightened Def Con from 0.000575297 to 0.000575297
Heightened Def Con from 0.000575796 to 0.000575796
Heightened Def Con from 0.000576297 ++to 0.000576297
Heightened Def Con from 0.000576297 to 0.000576297
Heightened Def Con from 0.000577297 to 0.000577297
Heightened Def Con from 0.000577796 to 0.000577796
Heightened Def Con from 0.000577796 +++to 0.000577796
Heightened Def Con from 0.000578297 to 0.000578297
Heightened Def Con from 0.000578297 to 0.000578297
Heightened Def Con from 0.000578796 ++to 0.000578796
Heightened Def Con from 0.000578796 +++to 0.000578796
Heightened Def Con from 0.000578796 +++to 0.000578796
Heightened Def Con from 0.000580796 +++to 0.000580796
Heightened Def Con from 0.000581796 ++to 0.000581796
Heightened Def Con from 0.000581796 +++to 0.000581796
Heightened Def Con from 0.000583297 to 0.000583297
Heightened Def Con from 0.000583297 to 0.000583297
Heightened Def Con from 0.000583796 to 0.000583796
Heightened Def Con from 0.000583796 ++to 0.000583796
Heightened Def Con from 0.000583796 to 0.000583796
Heightened Def Con from 0.000584297 to 0.000584297
Heightened Def Con from 0.000584796 to 0.000584796
Heightened Def Con from 0.000586796 ++to 0.000586796
Heightened Def Con from 0.000587796 ++++to 0.000587796
Heightened Def Con from 0.000588796 to 0.000588796
Heightened Def Con from 0.000588796 +to 0.000588796
Heightened Def Con from 0.000588796 to 0.000588796
Heightened Def Con from 0.000589658 to 0.000589658
Heightened Def Con from 0.000589796 +++to 0.000589796
Heightened Def Con from 0.000590796 ++to 0.000590796
Heightened Def Con from 0.000590796 to 0.000590796
Heightened Def Con from 0.000591658 to 0.000591658
Heightened Def Con from 0.000591796 to 0.000591796
Heightened Def Con from 0.000591796 ++to 0.000591796
Heightened Def Con from 0.000592796 to 0.000592796
Heightened Def Con from 0.000592796 to 0.000592796
Heightened Def Con from 0.000592796 to 0.000592796
Heightened Def Con from 0.000592796 to 0.000592796
Heightened Def Con from 0.000592796 to 0.000592796
Heightened Def Con from 0.000592796 to 0.000592796
Heightened Def Con from 0.000593297 ++++to 0.000593297
Heightened Def Con from 0.000593796 to 0.000593796
Heightened Def Con from 0.000593796 +to 0.000593796
Heightened Def Con from 0.000593796 to 0.000593796
Heightened Def Con from 0.000594658 to 0.000594658
Heightened Def Con from 0.000594796 to 0.000594796
Heightened Def Con from 0.000594796 to 0.000594796
Heightened Def Con from 0.000595297 +to 0.000595297
Heightened Def Con from 0.000595297 to 0.000595297
Heightened Def Con from 0.000595297 to 0.000595297
Heightened Def Con from 0.000595796 ++to 0.000595796
Heightened Def Con from 0.000595796 to 0.000595796
Heightened Def Con from 0.000596796 to 0.000596796
Heightened Def Con from 0.000596796 to 0.000596796
Heightened Def Con from 0.000596796 +++to 0.000596796
Heightened Def Con from 0.000597232 to 0.000597232
Heightened Def Con from 0.000597297 to 0.000597297
Heightened Def Con from 0.000597297 to 0.000597297
Heightened Def Con from 0.000601297 to 0.000601297
Heightened Def Con from 0.000601796 +to 0.000601796
Heightened Def Con from 0.000603297 to 0.000603297
Heightened Def Con from 0.000603796 to 0.000603796
Heightened Def Con from 0.000604796 to 0.000604796
Heightened Def Con from 0.000604796 to 0.000604796
Heightened Def Con from 0.000604796 to 0.000604796
Heightened Def Con from 0.000604796 to 0.000604796
Heightened Def Con from 0.000606297 +to 0.000606297
Heightened Def Con from 0.000606658 to 0.000606658
Heightened Def Con from 0.000606796 to 0.000606796
Heightened Def Con from 0.000606796 to 0.000606796
Heightened Def Con from 0.000607297 to 0.000607297
Heightened Def Con from 0.000607658 to 0.000607658
Heightened Def Con from 0.000607796 to 0.000607796
Heightened Def Con from 0.000607796 to 0.000607796
Heightened Def Con from 0.000607796 +to 0.000607796
Heightened Def Con from 0.000607796 ++to 0.000607796
Heightened Def Con from 0.000607796 to 0.000607796
Heightened Def Con from 0.000607796 to 0.000607796
Heightened Def Con from 0.000608297 to 0.000608297
Heightened Def Con from 0.000608297 to 0.000608297
Heightened Def Con from 0.000608297 +++to 0.000608297
Heightened Def Con from 0.000609297 to 0.000609297
Heightened Def Con from 0.000609796 to 0.000609796
Heightened Def Con from 0.000611796 ++to 0.000611796
Heightened Def Con from 0.000612297 to 0.000612297
Heightened Def Con from 0.000612297 +++to 0.000612297
Heightened Def Con from 0.000612297 to 0.000612297
Heightened Def Con from 0.000612658 to 0.000612658
Heightened Def Con from 0.000612796 to 0.000612796
Heightened Def Con from 0.000612796 +++to 0.000612796
Heightened Def Con from 0.000613658 to 0.000613658
Heightened Def Con from 0.000613658 to 0.000613658
Heightened Def Con from 0.000613796 +++to 0.000613796
Heightened Def Con from 0.000614796 to 0.000614796
Heightened Def Con from 0.000615297 to 0.000615297
Heightened Def Con from 0.000615297 to 0.000615297
Heightened Def Con from 0.000615297 to 0.000615297
Heightened Def Con from 0.000616658 to 0.000616658
Heightened Def Con from 0.000616658 to 0.000616658
Heightened Def Con from 0.000617297 to 0.000617297
Heightened Def Con from 0.000617796 to 0.000617796
Heightened Def Con from 0.000617796 to 0.000617796
Heightened Def Con from 0.000618297 to 0.000618297
Heightened Def Con from 0.000618796 ++++to 0.000618796
Heightened Def Con from 0.000618796 to 0.000618796
Heightened Def Con from 0.000619297 to 0.000619297
Heightened Def Con from 0.000619297 to 0.000619297
Heightened Def Con from 0.000619297 +++to 0.000619297
Heightened Def Con from 0.000619297 to 0.000619297
Heightened Def Con from 0.000620297 to 0.000620297
Heightened Def Con from 0.000620297 to 0.000620297
Heightened Def Con from 0.000624796 to 0.000624796
Heightened Def Con from 0.000625796 to 0.000625796
Heightened Def Con from 0.000625796 to 0.000625796
Heightened Def Con from 0.000626297 to 0.000626297
Heightened Def Con from 0.000626297 +++to 0.000626297
Heightened Def Con from 0.000626297 to 0.000626297
Heightened Def Con from 0.000626796 to 0.000626796
Heightened Def Con from 0.000627796 to 0.000627796
Heightened Def Con from 0.000628796 to 0.000628796
Heightened Def Con from 0.000628796 to 0.000628796
Heightened Def Con from 0.000629796 +to 0.000629796
Heightened Def Con from 0.000629796 to 0.000629796
Heightened Def Con from 0.000631297 to 0.000631297
Heightened Def Con from 0.000631297 to 0.000631297
Heightened Def Con from 0.000631796 to 0.000631796
Heightened Def Con from 0.000632297 +++to 0.000632297
Heightened Def Con from 0.000632297 to 0.000632297
Heightened Def Con from 0.000632796 to 0.000632796
Heightened Def Con from 0.000632796 to 0.000632796
Heightened Def Con from 0.000633297 to 0.000633297
Heightened Def Con from 0.000633796 to 0.000633796
Heightened Def Con from 0.000634232 to 0.000634232
Heightened Def Con from 0.000634297 to 0.000634297
Heightened Def Con from 0.000634297 to 0.000634297
Heightened Def Con from 0.000634796 +++to 0.000634796
Heightened Def Con from 0.000634796 to 0.000634796
Heightened Def Con from 0.000635297 to 0.000635297
Heightened Def Con from 0.000635297 to 0.000635297
Heightened Def Con from 0.000635796 to 0.000635796
Heightened Def Con from 0.000635796 to 0.000635796
Heightened Def Con from 0.000636232 to 0.000636232
Heightened Def Con from 0.000636232 to 0.000636232
Heightened Def Con from 0.000636796 to 0.000636796
Heightened Def Con from 0.000636796 to 0.000636796
Heightened Def Con from 0.000636796 to 0.000636796
Heightened Def Con from 0.000636796 to 0.000636796
Heightened Def Con from 0.000637796 to 0.000637796
Heightened Def Con from 0.000637796 to 0.000637796
Heightened Def Con from 0.000638297 to 0.000638297
Heightened Def Con from 0.000638297 to 0.000638297
Heightened Def Con from 0.000638796 to 0.000638796
Heightened Def Con from 0.000638796 to 0.000638796
Heightened Def Con from 0.000638796 +to 0.000638796
Heightened Def Con from 0.000638796 to 0.000638796
Heightened Def Con from 0.000638796 to 0.000638796
Heightened Def Con from 0.000638796 to 0.000638796
Heightened Def Con from 0.000639232 to 0.000639232
Heightened Def Con from 0.000639297 to 0.000639297
Heightened Def Con from 0.000639297 to 0.000639297
Heightened Def Con from 0.000640232 to 0.000640232
Heightened Def Con from 0.000641297 to 0.000641297
Heightened Def Con from 0.000641796 to 0.000641796
Heightened Def Con from 0.000641796 to 0.000641796
Heightened Def Con from 0.000641796 to 0.000641796
Heightened Def Con from 0.000641796 ++++to 0.000641796
Heightened Def Con from 0.000641796 to 0.000641796
Heightened Def Con from 0.000641796 +++to 0.000641796
Heightened Def Con from 0.000641796 +++to 0.000641796
Heightened Def Con from 0.000641796 to 0.000641799
Heightened Def Con from 0.000642796 +++to 0.000642796
Heightened Def Con from 0.000642796 to 0.000642796
Heightened Def Con from 0.000644796 to 0.000644796
Heightened Def Con from 0.000644796 to 0.000644796
Heightened Def Con from 0.000644796 to 0.000644796
Heightened Def Con from 0.000644796 to 0.000644796
Heightened Def Con from 0.000644796 to 0.000644796
Heightened Def Con from 0.000646297 to 0.000646297
Heightened Def Con from 0.000646297 to 0.000646297
Heightened Def Con from 0.000647297 +to 0.000647297
Heightened Def Con from 0.000647297 to 0.000647297
Heightened Def Con from 0.000647297 to 0.000647297
Heightened Def Con from 0.000647297 to 0.0006473
Heightened Def Con from 0.000648232 to 0.000648232
Heightened Def Con from 0.000648796 ++to 0.000648796
Heightened Def Con from 0.000648796 to 0.000648796
Heightened Def Con from 0.000649796 +++to 0.000649796
Heightened Def Con from 0.000649796 to 0.000649796
Heightened Def Con from 0.000650297 to 0.000650297
Heightened Def Con from 0.000650297 to 0.000650297
Heightened Def Con from 0.000650796 to 0.000650796
Heightened Def Con from 0.000651796 to 0.000651796
Heightened Def Con from 0.000651796 to 0.000651796
Heightened Def Con from 0.000651796 to 0.000651799
Heightened Def Con from 0.000652297 to 0.000652297
Heightened Def Con from 0.000653297 to 0.000653297
Heightened Def Con from 0.000653658 +to 0.000653658
Heightened Def Con from 0.000653796 to 0.000653796
Heightened Def Con from 0.000654297 to 0.000654297
Heightened Def Con from 0.000654297 +++to 0.000654297
Heightened Def Con from 0.000654796 to 0.000654796
Heightened Def Con from 0.000656658 to 0.000656658
Heightened Def Con from 0.000656658 to 0.000656658
Heightened Def Con from 0.000657297 to 0.000657297
Heightened Def Con from 0.000657297 to 0.000657297
Heightened Def Con from 0.000657297 to 0.000657297
Heightened Def Con from 0.000658297 ++to 0.000658297
Heightened Def Con from 0.000658796 +to 0.000658796
Heightened Def Con from 0.000658796 +to 0.000658796
Heightened Def Con from 0.000659796 to 0.000659796
Heightened Def Con from 0.000659796 to 0.000659796
Heightened Def Con from 0.000659796 to 0.000659796
Heightened Def Con from 0.000661297 to 0.000661297
Heightened Def Con from 0.000662796 +++to 0.000662796
Heightened Def Con from 0.000663297 +to 0.000663297
Heightened Def Con from 0.000663796 to 0.000663796
Heightened Def Con from 0.000664297 to 0.000664297
Heightened Def Con from 0.000664297 to 0.000664297
Heightened Def Con from 0.000664297 to 0.0006643
Heightened Def Con from 0.000664796 +++to 0.000664796
Heightened Def Con from 0.000664796 to 0.000664796
Heightened Def Con from 0.000666796 to 0.000666796
Heightened Def Con from 0.000666796 to 0.000666796
Heightened Def Con from 0.000666796 to 0.000666796
Heightened Def Con from 0.000666796 to 0.000666796
Heightened Def Con from 0.000667796 to 0.000667796
Heightened Def Con from 0.000667796 to 0.000667796
Heightened Def Con from 0.000667796 to 0.000667796
Heightened Def Con from 0.000667796 to 0.000667796
Heightened Def Con from 0.000669297 to 0.000669297
Heightened Def Con from 0.000669297 to 0.000669297
Heightened Def Con from 0.000669297 to 0.000669297
Heightened Def Con from 0.000669297 to 0.000669297
Heightened Def Con from 0.000669796 to 0.000669796
Heightened Def Con from 0.000670796 to 0.000670796
Heightened Def Con from 0.000671297 to 0.000671297
Heightened Def Con from 0.000673297 to 0.000673297
Heightened Def Con from 0.000673796 to 0.000673796
Heightened Def Con from 0.000673796 to 0.000673796
Heightened Def Con from 0.000674297 to 0.000674297
Heightened Def Con from 0.000674796 to 0.000674796
Heightened Def Con from 0.000675297 to 0.000675297
Heightened Def Con from 0.000675796 to 0.000675796
Heightened Def Con from 0.000675796 to 0.000675796
[...]
Heightened Def Con from 0.0010928 to 0.0010928
Heightened Def Con from 0.0010938 to 0.0010938
Heightened Def Con from 0.00109466 to 0.00109466
Heightened Def Con from 0.0010948 to 0.0010948
Heightened Def Con from 0.0010968 to 0.0010968
Heightened Def Con from 0.0010968 to 0.0010968
Heightened Def Con from 0.0010978 +++to 0.0010978
Heightened Def Con from 0.0010978 to 0.0010978
Heightened Def Con from 0.0010988 to 0.0010988
Heightened Def Con from 0.00109923 to 0.00109923
Heightened Def Con from 0.0010998 to 0.0010998
Heightened Def Con from 0.0011008 +++to 0.0011008
Heightened Def Con from 0.0011018 ++to 0.0011018
Heightened Def Con from 0.0011038 to 0.0011038
Heightened Def Con from 0.0011038 to 0.0011038
Heightened Def Con from 0.0011048 to 0.0011048
Heightened Def Con from 0.0011048 to 0.0011048
Heightened Def Con from 0.00110623 to 0.00110623
Heightened Def Con from 0.0011068 to 0.0011068
Heightened Def Con from 0.00110723 to 0.00110723
Heightened Def Con from 0.0011098 to 0.0011098
Heightened Def Con from 0.0011098 to 0.0011098
Heightened Def Con from 0.0011098 to 0.0011098
Heightened Def Con from 0.0011108 +to 0.0011108
Heightened Def Con from 0.0011108 ++to 0.0011108
Heightened Def Con from 0.0011108 to 0.0011108
Heightened Def Con from 0.0011138 ++++to 0.0011138
Heightened Def Con from 0.0011148 to 0.0011148
Heightened Def Con from 0.0011148 to 0.0011148
Heightened Def Con from 0.0011158 to 0.0011158
Heightened Def Con from 0.0011178 to 0.0011178
Heightened Def Con from 0.0011183 to 0.0011183
Heightened Def Con from 0.0011183 to 0.0011183
Heightened Def Con from 0.00111866 to 0.00111866
Heightened Def Con from 0.00111866 to 0.00111866
Heightened Def Con from 0.0011198 +++to 0.0011198
Heightened Def Con from 0.0011203 to 0.0011203
Heightened Def Con from 0.0011208 +to 0.0011208
Heightened Def Con from 0.0011208 +to 0.0011208
Heightened Def Con from 0.0011208 to 0.0011208
Heightened Def Con from 0.0011208 to 0.0011208
Heightened Def Con from 0.0011208 to 0.0011208
Heightened Def Con from 0.0011208 +++to 0.0011208
Heightened Def Con from 0.0011208 to 0.0011208
Heightened Def Con from 0.0011213 to 0.0011213
Heightened Def Con from 0.0011228 +to 0.0011228
Heightened Def Con from 0.00112323 +to 0.00112323
Heightened Def Con from 0.00112323 to 0.00112323
Heightened Def Con from 0.0011238 to 0.0011238
Heightened Def Con from 0.0011238 to 0.0011238
Heightened Def Con from 0.00112523 to 0.00112523
Heightened Def Con from 0.0011258 to 0.0011258
Heightened Def Con from 0.0011258 to 0.0011258
Heightened Def Con from 0.0011258 to 0.0011258
Heightened Def Con from 0.0011278 to 0.0011278
Heightened Def Con from 0.0011278 to 0.0011278
Heightened Def Con from 0.0011278 to 0.0011278
Heightened Def Con from 0.0011278 ++++to 0.0011278
Heightened Def Con from 0.0011288 to 0.0011288
Heightened Def Con from 0.0011288 +to 0.0011288
Heightened Def Con from 0.0011288 to 0.0011288
Heightened Def Con from 0.0011288 to 0.0011288
Heightened Def Con from 0.0011288 ++++to 0.0011288
Heightened Def Con from 0.0011298 to 0.0011298
Heightened Def Con from 0.0011303 ++to 0.0011303
Heightened Def Con from 0.0011303 +++to 0.0011303
Heightened Def Con from 0.0011308 to 0.0011308
Heightened Def Con from 0.0011308 to 0.0011308
Heightened Def Con from 0.0011313 to 0.0011313
Heightened Def Con from 0.0011313 to 0.0011313
Heightened Def Con from 0.0011313 to 0.0011313
Heightened Def Con from 0.0011333 to 0.0011333
Heightened Def Con from 0.0011338 to 0.0011338
Heightened Def Con from 0.0011338 to 0.0011338
Heightened Def Con from 0.0011338 to 0.0011338
Heightened Def Con from 0.0011343 ++to 0.0011343
Heightened Def Con from 0.0011343 +++to 0.0011343
Heightened Def Con from 0.0011348 to 0.0011348
Heightened Def Con from 0.0011358 to 0.0011358
Heightened Def Con from 0.0011363 to 0.0011363
Heightened Def Con from 0.0011363 ++++to 0.0011363
Heightened Def Con from 0.0011363 to 0.0011363
Heightened Def Con from 0.0011368 to 0.0011368
Heightened Def Con from 0.0011368 to 0.0011368
Heightened Def Con from 0.0011368 to 0.0011368
Heightened Def Con from 0.0011373 to 0.0011373
Heightened Def Con from 0.0011373 to 0.0011373
Heightened Def Con from 0.0011373 to 0.0011373
Heightened Def Con from 0.0011378 +++to 0.0011378
Heightened Def Con from 0.0011383 to 0.0011383
Heightened Def Con from 0.0011393 to 0.0011393
Heightened Def Con from 0.0011393 to 0.0011393
Heightened Def Con from 0.0011398 +++to 0.0011398
Heightened Def Con from 0.0011398 to 0.0011398
Heightened Def Con from 0.0011403 to 0.0011403
Heightened Def Con from 0.0011408 to 0.0011408
Heightened Def Con from 0.0011408 to 0.0011408
Heightened Def Con from 0.0011413 to 0.0011413
Heightened Def Con from 0.0011413 to 0.0011413
Heightened Def Con from 0.0011418 ++++to 0.0011418
Heightened Def Con from 0.0011418 to 0.0011418
Heightened Def Con from 0.00114223 to 0.00114223
Heightened Def Con from 0.00114323 to 0.00114323
Heightened Def Con from 0.0011433 to 0.0011433
Heightened Def Con from 0.0011433 to 0.0011433
Heightened Def Con from 0.0011433 +++to 0.0011433
Heightened Def Con from 0.00114366 to 0.00114366
Heightened Def Con from 0.0011438 to 0.0011438
Heightened Def Con from 0.0011443 to 0.0011443
Heightened Def Con from 0.0011443 ++to 0.0011443
Heightened Def Con from 0.0011443 to 0.0011443
Heightened Def Con from 0.0011453 to 0.0011453
Heightened Def Con from 0.0011458 to 0.0011458
Heightened Def Con from 0.0011458 to 0.0011458
Heightened Def Con from 0.0011468 to 0.0011468
Heightened Def Con from 0.0011468 to 0.0011468
Heightened Def Con from 0.0011468 to 0.0011468
Heightened Def Con from 0.0011468 to 0.0011468
Heightened Def Con from 0.0011488 +++to 0.0011488
Heightened Def Con from 0.0011488 to 0.0011488
Heightened Def Con from 0.0011488 to 0.0011488
Heightened Def Con from 0.0011493 to 0.0011493
Heightened Def Con from 0.0011493 to 0.0011493
Heightened Def Con from 0.0011498 to 0.0011498
Heightened Def Con from 0.0011498 +++++to 0.0011498
Heightened Def Con from 0.0011508 to 0.0011508
Heightened Def Con from 0.0011523 to 0.0011523
Heightened Def Con from 0.0011523 +++to 0.0011523
Heightened Def Con from 0.0011523 to 0.0011523
Heightened Def Con from 0.0011528 to 0.0011528
Heightened Def Con from 0.0011528 to 0.0011528
Heightened Def Con from 0.0011528 to 0.0011528
Heightened Def Con from 0.0011533 to 0.0011533
Heightened Def Con from 0.0011538 to 0.0011538
Heightened Def Con from 0.0011543 ++to 0.0011543
Heightened Def Con from 0.0011548 to 0.0011548
Heightened Def Con from 0.0011558 to 0.0011558
Heightened Def Con from 0.0011558 +++to 0.0011558
Heightened Def Con from 0.0011558 to 0.0011558
Heightened Def Con from 0.0011563 to 0.0011563
Heightened Def Con from 0.0011563 +to 0.0011563
Heightened Def Con from 0.0011568 to 0.0011568
Heightened Def Con from 0.00115723 to 0.00115723
Heightened Def Con from 0.00115723 to 0.00115723
Heightened Def Con from 0.00115723 to 0.00115723
Heightened Def Con from 0.00115766 to 0.00115766
Heightened Def Con from 0.0011583 to 0.0011583
Heightened Def Con from 0.0011588 to 0.0011588
Heightened Def Con from 0.0011588 to 0.0011588
Heightened Def Con from 0.0011588 to 0.0011588
Heightened Def Con from 0.0011588 to 0.0011588
Heightened Def Con from 0.0011593 +++to 0.0011593
Heightened Def Con from 0.0011598 to 0.0011598
Heightened Def Con from 0.0011608 to 0.0011608
Heightened Def Con from 0.0011608 to 0.0011608
Heightened Def Con from 0.0011608 to 0.0011608
Heightened Def Con from 0.0011613 to 0.0011613
Heightened Def Con from 0.0011613 to 0.0011613
Heightened Def Con from 0.0011623 to 0.0011623
Heightened Def Con from 0.0011628 to 0.0011628
Heightened Def Con from 0.0011628 to 0.0011628
Heightened Def Con from 0.0011633 +to 0.0011633
Heightened Def Con from 0.0011633 to 0.0011633
Heightened Def Con from 0.0011633 to 0.0011633
Heightened Def Con from 0.0011638 to 0.0011638
Heightened Def Con from 0.0011638 ++to 0.0011638
Heightened Def Con from 0.0011638 to 0.0011638
Heightened Def Con from 0.00116423 to 0.00116423
Heightened Def Con from 0.0011648 +++to 0.0011648
Heightened Def Con from 0.0011673 to 0.0011673
Heightened Def Con from 0.0011673 ++++to 0.0011673
Heightened Def Con from 0.00116823 to 0.00116823
Heightened Def Con from 0.00116823 to 0.00116823
Heightened Def Con from 0.00116823 to 0.00116823
Heightened Def Con from 0.0011693 to 0.0011693
Heightened Def Con from 0.0011703 +to 0.0011703
Heightened Def Con from 0.0011703 to 0.0011703
Heightened Def Con from 0.0011708 to 0.0011708
Heightened Def Con from 0.0011708 to 0.0011708
Heightened Def Con from 0.0011713 ++to 0.0011713
Heightened Def Con from 0.0011723 to 0.0011723
Heightened Def Con from 0.0011738 to 0.0011738
Heightened Def Con from 0.0011738 +++to 0.0011738
Heightened Def Con from 0.0011738 to 0.0011738
Heightened Def Con from 0.0011738 to 0.0011738
Heightened Def Con from 0.0011748 ++to 0.0011748
Heightened Def Con from 0.0011748 ++to 0.0011748
Heightened Def Con from 0.0011748 to 0.0011748
Heightened Def Con from 0.0011748 to 0.0011748
Heightened Def Con from 0.0011753 +to 0.0011753
Heightened Def Con from 0.0011753 to 0.0011753
Heightened Def Con from 0.0011758 to 0.0011758
Heightened Def Con from 0.0011758 to 0.0011758
Heightened Def Con from 0.0011763 to 0.0011763
Heightened Def Con from 0.0011763 to 0.0011763
Heightened Def Con from 0.0011778 to 0.0011778
Heightened Def Con from 0.0011798 to 0.0011798
Heightened Def Con from 0.0011798 to 0.0011798
Heightened Def Con from 0.0011803 to 0.0011803
Heightened Def Con from 0.0011803 to 0.0011803
Heightened Def Con from 0.0011818 ++++to 0.0011818
Heightened Def Con from 0.0011833 to 0.0011833
Heightened Def Con from 0.0011833 to 0.0011833
Heightened Def Con from 0.0011833 to 0.0011833
Heightened Def Con from 0.0011843 to 0.0011843
Heightened Def Con from 0.0011843 to 0.0011843
Heightened Def Con from 0.0011848 to 0.0011848
Heightened Def Con from 0.0011848 to 0.0011848
Heightened Def Con from 0.0011848 ++++to 0.0011848
Heightened Def Con from 0.0011848 to 0.0011848
Heightened Def Con from 0.0011853 to 0.0011853
Heightened Def Con from 0.0011853 to 0.0011853
Heightened Def Con from 0.00118666 to 0.00118666
Heightened Def Con from 0.00118666 to 0.00118666
Heightened Def Con from 0.0011868 to 0.0011868
Heightened Def Con from 0.0011868 +++to 0.0011868
Heightened Def Con from 0.0011868 to 0.0011868
Heightened Def Con from 0.0011878 to 0.0011878
Heightened Def Con from 0.0011888 to 0.0011888
Heightened Def Con from 0.0011888 to 0.0011888
Heightened Def Con from 0.0011888 to 0.0011888
Heightened Def Con from 0.0011888 +++to 0.0011888
Heightened Def Con from 0.0011898 to 0.0011898
Heightened Def Con from 0.0011898 to 0.0011898
Heightened Def Con from 0.0011908 to 0.0011908
Heightened Def Con from 0.0011913 to 0.0011913
Heightened Def Con from 0.0011913 to 0.0011913
Heightened Def Con from 0.0011913 to 0.0011913
Heightened Def Con from 0.0011913 to 0.0011913
Heightened Def Con from 0.0011918 to 0.0011918
Heightened Def Con from 0.0011918 to 0.0011918
Heightened Def Con from 0.0011918 to 0.0011918
Heightened Def Con from 0.0011923 to 0.0011923
Heightened Def Con from 0.0011923 ++++to 0.0011923
Heightened Def Con from 0.0011923 ++++to 0.0011923
Heightened Def Con from 0.0011923 to 0.0011923
Heightened Def Con from 0.0011933 to 0.0011933
Heightened Def Con from 0.0011938 to 0.0011938
Heightened Def Con from 0.0011943 to 0.0011943
Heightened Def Con from 0.0011943 to 0.0011943
Heightened Def Con from 0.0011953 to 0.0011953
Heightened Def Con from 0.0011958 to 0.0011958
Heightened Def Con from 0.0011963 to 0.0011963
Heightened Def Con from 0.0011963 to 0.0011963
Heightened Def Con from 0.00119666 to 0.00119666
Heightened Def Con from 0.0011973 to 0.0011973
Heightened Def Con from 0.0011973 to 0.0011973
Heightened Def Con from 0.0011978 to 0.0011978
Heightened Def Con from 0.0011978 to 0.0011978
Heightened Def Con from 0.0011983 to 0.0011983
Heightened Def Con from 0.0011988 to 0.0011988
Heightened Def Con from 0.0011988 to 0.0011988
Heightened Def Con from 0.00119923 to 0.00119923
Heightened Def Con from 0.0011993 to 0.0011993
Heightened Def Con from 0.00119966 to 0.00119966
Heightened Def Con from 0.00119966 to 0.00119966
Heightened Def Con from 0.0012003 to 0.0012003
Heightened Def Con from 0.0012018 to 0.0012018
Heightened Def Con from 0.0012018 to 0.0012018
Heightened Def Con from 0.0012018 to 0.0012018
Heightened Def Con from 0.0012018 +to 0.0012018
Heightened Def Con from 0.0012023 +to 0.0012023
Heightened Def Con from 0.0012023 to 0.0012023
Heightened Def Con from 0.0012023 to 0.0012023
Heightened Def Con from 0.0012023 +to 0.0012023
Heightened Def Con from 0.0012023 to 0.0012023
Heightened Def Con from 0.0012028 to 0.0012028
Heightened Def Con from 0.0012028 to 0.0012028
Heightened Def Con from 0.0012038 to 0.0012038
Heightened Def Con from 0.0012038 to 0.0012038
Heightened Def Con from 0.0012053 to 0.0012053
Heightened Def Con from 0.0012053 to 0.0012053
Heightened Def Con from 0.0012053 to 0.0012053
Heightened Def Con from 0.0012068 +++to 0.0012068
Heightened Def Con from 0.0012073 to 0.0012073
Heightened Def Con from 0.0012093 +to 0.0012093
Heightened Def Con from 0.0012093 to 0.0012093
Heightened Def Con from 0.0012098 to 0.0012098
Heightened Def Con from 0.0012098 +++to 0.0012098
Heightened Def Con from 0.0012103 to 0.0012103
Heightened Def Con from 0.0012103 +to 0.0012103
Heightened Def Con from 0.0012113 to 0.0012113
Heightened Def Con from 0.0012113 to 0.0012113
Heightened Def Con from 0.0012113 to 0.0012113
Heightened Def Con from 0.0012113 to 0.0012113
Heightened Def Con from 0.0012113 ++++to 0.0012113
Heightened Def Con from 0.0012118 +++to 0.0012118
Heightened Def Con from 0.0012118 to 0.0012118
Heightened Def Con from 0.0012118 to 0.0012118
Heightened Def Con from 0.0012123 +++to 0.0012123
Heightened Def Con from 0.0012123 to 0.0012123
Heightened Def Con from 0.0012128 to 0.0012128
Heightened Def Con from 0.0012128 to 0.0012128
Heightened Def Con from 0.0012133 to 0.0012133
Heightened Def Con from 0.0012133 to 0.0012133
Heightened Def Con from 0.0012138 to 0.0012138
Heightened Def Con from 0.0012143 to 0.0012143
Heightened Def Con from 0.0012148 to 0.0012148
Heightened Def Con from 0.00121566 to 0.00121566
Heightened Def Con from 0.0012163 to 0.0012163
Heightened Def Con from 0.0012168 to 0.0012168
Heightened Def Con from 0.0012173 to 0.0012173
Heightened Def Con from 0.0012173 to 0.0012173
Heightened Def Con from 0.0012173 to 0.0012173
Heightened Def Con from 0.0012178 to 0.0012178
Heightened Def Con from 0.0012178 to 0.0012178
Heightened Def Con from 0.0012183 to 0.0012183
Heightened Def Con from 0.0012188 ++to 0.0012188
Heightened Def Con from 0.0012188 ++++to 0.0012188
Heightened Def Con from 0.0012188 to 0.0012188
Heightened Def Con from 0.0012193 to 0.0012193
Heightened Def Con from 0.0012193 +to 0.0012193
Heightened Def Con from 0.0012193 to 0.0012193
Heightened Def Con from 0.0012203 to 0.0012203
Heightened Def Con from 0.0012203 to 0.0012203
Heightened Def Con from 0.0012208 to 0.0012208
Heightened Def Con from 0.0012213 to 0.0012213
Heightened Def Con from 0.0012213 to 0.0012213
Heightened Def Con from 0.0012218 to 0.0012218
Heightened Def Con from 0.0012218 to 0.0012218
Heightened Def Con from 0.0012218 to 0.0012218
Heightened Def Con from 0.0012223 to 0.0012223
Heightened Def Con from 0.0012223 to 0.0012223
Heightened Def Con from 0.0012228 to 0.0012228
Heightened Def Con from 0.0012238 to 0.0012238
Heightened Def Con from 0.0012238 to 0.0012238
Heightened Def Con from 0.0012238 to 0.0012238
Heightened Def Con from 0.0012243 to 0.0012243
Heightened Def Con from 0.00122566 to 0.00122566
Heightened Def Con from 0.00122566 to 0.00122566
Heightened Def Con from 0.00122566 to 0.00122566
Heightened Def Con from 0.0012263 ++++to 0.0012263
Heightened Def Con from 0.0012263 to 0.0012263
Heightened Def Con from 0.00122666 to 0.00122666
Heightened Def Con from 0.0012268 to 0.0012268
Heightened Def Con from 0.0012268 to 0.0012268
Heightened Def Con from 0.0012268 to 0.0012268
Heightened Def Con from 0.00122723 to 0.00122723
Heightened Def Con from 0.0012273 to 0.0012273
Heightened Def Con from 0.0012278 to 0.0012278
Heightened Def Con from 0.0012278 ++to 0.0012278
Heightened Def Con from 0.0012283 to 0.0012283
Heightened Def Con from 0.0012298 +++to 0.0012298
Heightened Def Con from 0.0012308 to 0.0012308
Heightened Def Con from 0.0012308 to 0.0012308
Heightened Def Con from 0.0012308 to 0.0012308
Heightened Def Con from 0.0012308 to 0.0012308
Heightened Def Con from 0.0012308 to 0.0012308
Heightened Def Con from 0.0012313 to 0.0012313
Heightened Def Con from 0.0012313 +to 0.0012313
Heightened Def Con from 0.0012313 to 0.0012313
Heightened Def Con from 0.0012313 to 0.0012313
Heightened Def Con from 0.0012313 to 0.0012313
Heightened Def Con from 0.0012313 to 0.0012313
Heightened Def Con from 0.0012313 to 0.0012313
Heightened Def Con from 0.0012313 to 0.0012313
Heightened Def Con from 0.0012313 to 0.0012313
Heightened Def Con from 0.0012313 to 0.0012313
Heightened Def Con from 0.0012313 to 0.0012313
Heightened Def Con from 0.0012313 +++++to 0.0012313
Heightened Def Con from 0.0012328 to 0.0012328
Heightened Def Con from 0.0012333 to 0.0012333
Heightened Def Con from 0.0012333 +to 0.0012333
Heightened Def Con from 0.0012338 to 0.0012338
Heightened Def Con from 0.0012348 +to 0.0012348
Heightened Def Con from 0.0012348 to 0.0012348
Heightened Def Con from 0.0012348 to 0.0012348
Heightened Def Con from 0.0012358 ++to 0.0012358
Heightened Def Con from 0.0012358 ++++to 0.0012358
Heightened Def Con from 0.0012363 +to 0.0012363
Heightened Def Con from 0.0012363 ++++to 0.0012363
Heightened Def Con from 0.0012363 to 0.0012363
Heightened Def Con from 0.0012368 to 0.0012368
Heightened Def Con from 0.0012368 to 0.0012368
Heightened Def Con from 0.00123723 to 0.00123723
Heightened Def Con from 0.0012378 +to 0.0012378
Heightened Def Con from 0.0012378 to 0.0012378
Heightened Def Con from 0.0012383 to 0.0012383
Heightened Def Con from 0.0012383 to 0.0012383
Heightened Def Con from 0.0012383 +++to 0.0012383
Heightened Def Con from 0.0012383 to 0.0012383
Heightened Def Con from 0.0012388 to 0.0012388
Heightened Def Con from 0.00123966 to 0.00123966
Heightened Def Con from 0.0012398 to 0.0012398
Heightened Def Con from 0.0012398 to 0.0012398
Heightened Def Con from 0.0012398 to 0.0012398
Heightened Def Con from 0.0012398 to 0.0012398
Heightened Def Con from 0.0012398 to 0.0012398
Heightened Def Con from 0.0012398 to 0.0012398
Heightened Def Con from 0.0012403 ++to 0.0012403
Heightened Def Con from 0.0012403 to 0.0012403
Heightened Def Con from 0.0012408 to 0.0012408
Heightened Def Con from 0.0012408 +to 0.0012408
Heightened Def Con from 0.0012413 to 0.0012413
Heightened Def Con from 0.0012418 +++to 0.0012418
Heightened Def Con from 0.0012418 ++to 0.0012418
Heightened Def Con from 0.0012428 +++to 0.0012428
Heightened Def Con from 0.0012428 to 0.0012428
Heightened Def Con from 0.0012448 to 0.0012448
Heightened Def Con from 0.0012448 to 0.0012448
Heightened Def Con from 0.0012453 to 0.0012453
Heightened Def Con from 0.00124566 to 0.00124566
Heightened Def Con from 0.0012463 to 0.0012463
Heightened Def Con from 0.0012488 to 0.0012488
Heightened Def Con from 0.0012488 to 0.0012488
Heightened Def Con from 0.0012493 to 0.0012493
Heightened Def Con from 0.0012498 to 0.0012498
Heightened Def Con from 0.0012498 to 0.0012498
Heightened Def Con from 0.0012498 to 0.0012498
Heightened Def Con from 0.0012503 ++to 0.0012503

Date: Thu Nov 14 20:53:56 2024
Total elapsed time: 87.056 seconds.

tnom = 27
temp = 27
method = modified trap
totiter = 4048412
traniter = 4046652
tranpoints = 1470525
accept = 1382148
rejected = 92647
matrix size = 126
fillins = 425
solver = Normal
Thread vector: 9.4/8.0[3] 3.6/4.5[1] 10.5/8.9[3] 0.8/3.3[1]  2592/500
Matrix Compiler1: 30.00 KB object code size  6.3/3.3/[1.6]
Matrix Compiler2: 18.26 KB object code size  3.6/3.3/[1.1]

