Circuit: * Z:\home\ostoja\Elektronika\peak_detector\simulacije\test_the_tee.asc

WARNING: Less than two connections to node N002.  This node is used by R6.
Early termination of direct N-R iteration.
Direct Newton iteration failed to find .op point.  (Use ".option noopiter" to skip.)
Starting Gmin stepping
Increasing initial diagonal Gmin to 100
Gmin = 100
vernier = 0.5
vernier = 0.25
Gmin = 34.2672
vernier = 0.125
vernier = 0.0625
vernier = 0.03125
vernier = 0.015625
Gmin = 33.0995
vernier = 0.0078125
vernier = 0.00390625
vernier = 0.00195313
Gmin = 32.9705
vernier = 0.000976563
vernier = 0.000488281
Gmin = 0
Gmin stepping failed

Starting source stepping with srcstepmethod=0
Source Step = 3.0303%
Source Step = 33.3333%
Source Step = 63.6364%
Source Step = 93.9394%
Source stepping succeeded in finding the operating point.

.step level=0.1
Heightened Def Con from 3.79657e-006 ++to 3.79657e-006
Heightened Def Con from 6.30306e-006 to 6.30306e-006
Heightened Def Con from 6.79656e-006 to 6.79656e-006
Heightened Def Con from 1.13036e-005 +to 1.13036e-005
Heightened Def Con from 1.33037e-005 to 1.33037e-005
Heightened Def Con from 2.13037e-005 to 2.13037e-005
Heightened Def Con from 2.13037e-005 to 2.13037e-005
Heightened Def Con from 2.63037e-005 to 2.63037e-005
Heightened Def Con from 3.13037e-005 to 3.13037e-005
Heightened Def Con from 3.13037e-005 to 3.13037e-005
Heightened Def Con from 3.17966e-005 to 3.17966e-005
Heightened Def Con from 3.33037e-005 to 3.33037e-005
Heightened Def Con from 3.33037e-005 to 3.33037e-005
Heightened Def Con from 3.43037e-005 to 3.43037e-005
Heightened Def Con from 3.97966e-005 to 3.97966e-005
Heightened Def Con from 4.03037e-005 to 4.03037e-005
Heightened Def Con from 4.13037e-005 +to 4.13037e-005
Heightened Def Con from 4.13037e-005 to 4.13037e-005
Heightened Def Con from 4.17966e-005 to 4.17966e-005
Heightened Def Con from 4.27966e-005 to 4.27966e-005
Heightened Def Con from 4.47966e-005 to 4.47966e-005
Heightened Def Con from 4.87966e-005 to 4.87966e-005
Heightened Def Con from 5.27966e-005 to 5.27966e-005
Heightened Def Con from 5.37966e-005 to 5.37966e-005
Heightened Def Con from 6.13037e-005 to 6.13037e-005
Heightened Def Con from 6.23037e-005 to 6.23037e-005
Heightened Def Con from 6.63037e-005 +to 6.63037e-005
Heightened Def Con from 6.73037e-005 +to 6.73037e-005
Heightened Def Con from 6.77966e-005 to 6.77966e-005
Heightened Def Con from 6.96572e-005 to 6.96572e-005
Heightened Def Con from 7.07966e-005 to 7.07966e-005
Heightened Def Con from 7.47966e-005 to 7.47966e-005
Heightened Def Con from 7.47966e-005 to 7.47966e-005
Heightened Def Con from 7.58078e-005 to 7.58078e-005
