Circuit: * Z:\home\ostoja\Elektronika\peak_detector\simulacije\up_the_auntie.asc

Direct Newton iteration failed to find .op point.  (Use ".option noopiter" to skip.)
Starting Gmin stepping
Gmin = 10
Gmin = 1.07374
Gmin = 0.115292
Gmin = 0.0123794
Gmin = 0.00132923
Gmin = 0.000142725
Gmin = 1.5325e-005
Gmin = 1.6455e-006
Gmin = 1.76685e-007
Gmin = 1.89714e-008
Gmin = 2.03704e-009
Gmin = 2.18725e-010
Gmin = 2.34854e-011
Gmin = 2.52173e-012
Gmin = 2.70769e-013
Gmin = 0
Gmin stepping succeeded in finding the operating point.


Date: Wed Nov 13 21:40:19 2024
Total elapsed time: 2.324 seconds.

tnom = 27
temp = 27
method = modified trap
totiter = 207245
traniter = 206853
tranpoints = 100237
accept = 100124
rejected = 113
matrix size = 31
fillins = 11
solver = Normal
Matrix Compiler1: 2.24 KB object code size  0.7/0.5/[0.3]
Matrix Compiler2: 3.07 KB object code size  0.5/0.6/[0.4]

