Circuit: * E:\peak_detector\up_the_auntie.asc

Warning: Multiple definitions of model "2scr375p" Type: BJT
Warning: Multiple definitions of model "bc857b" Type: BJT
Warning: Multiple definitions of model "bc847c" Type: BJT
Warning: Multiple definitions of model "bc847b" Type: BJT
Direct Newton iteration failed to find .op point.  (Use ".option noopiter" to skip.)
Starting Gmin stepping
Gmin = 10
Gmin = 1.07374
Gmin = 0.115292
Gmin = 0.0123794
Gmin = 0.00132923
Gmin = 0.000142725
Gmin = 1.5325e-005
Gmin = 1.6455e-006
Gmin = 1.76685e-007
Gmin = 1.89714e-008
Gmin = 2.03704e-009
Gmin = 2.18725e-010
Gmin = 2.34854e-011
Gmin = 2.52173e-012
Gmin = 2.70769e-013
Gmin = 0
Gmin stepping succeeded in finding the operating point.

Heightened Def Con from 4.75405e-007 +++to 4.75405e-007
Heightened Def Con from 4.75405e-007 to 4.75405e-007
Heightened Def Con from 3.32561e-006 to 3.32561e-006
Heightened Def Con from 3.57543e-006 to 3.57543e-006
Heightened Def Con from 3.67543e-006 to 3.67543e-006
Heightened Def Con from 3.67543e-006 to 3.67543e-006
Heightened Def Con from 3.67543e-006 to 3.67543e-006
Heightened Def Con from 3.67543e-006 to 3.67543e-006
Heightened Def Con from 3.97543e-006 +++++to 3.97543e-006
Heightened Def Con from 3.97543e-006 +++++to 3.97543e-006
Heightened Def Con from 3.97543e-006 +++to 3.97543e-006
Heightened Def Con from 3.97543e-006 +++++to 3.97543e-006
Heightened Def Con from 4.07543e-006 to 4.07543e-006
Heightened Def Con from 4.17543e-006 to 4.17543e-006
Heightened Def Con from 4.17543e-006 to 4.17543e-006
Heightened Def Con from 4.27543e-006 to 4.27543e-006
Heightened Def Con from 4.37543e-006 to 4.37543e-006
Heightened Def Con from 4.37543e-006 +++++to 4.37543e-006
Heightened Def Con from 4.37543e-006 +++++to 4.37543e-006
Heightened Def Con from 4.37543e-006 +++to 4.37543e-006
Heightened Def Con from 4.37543e-006 ++++++to 4.37543e-006
Heightened Def Con from 4.47543e-006 to 4.47543e-006
Heightened Def Con from 4.47543e-006 +++to 4.47543e-006
Heightened Def Con from 4.47543e-006 to 4.47543e-006
Heightened Def Con from 4.47543e-006 to 4.47543e-006
Heightened Def Con from 4.47543e-006 ++++++to 4.47543e-006
Heightened Def Con from 4.47543e-006 to 4.47543e-006
Heightened Def Con from 4.57543e-006 to 4.57543e-006
Heightened Def Con from 4.57543e-006 ++++to 4.57543e-006
Heightened Def Con from 4.57543e-006 to 4.57543e-006
Heightened Def Con from 4.67543e-006 +++++++to 4.67543e-006
Heightened Def Con from 4.67543e-006 +++to 4.67543e-006
Heightened Def Con from 4.67543e-006 ++to 4.67543e-006
Heightened Def Con from 4.67543e-006 ++++to 4.67543e-006
Heightened Def Con from 4.87543e-006 +to 4.87543e-006
Heightened Def Con from 4.87543e-006 to 4.87543e-006
Heightened Def Con from 5.27543e-006 to 5.27543e-006
Heightened Def Con from 5.27543e-006 ++++++to 5.27543e-006
Heightened Def Con from 5.3754e-006 +++to 5.3754e-006
Heightened Def Con from 5.3754e-006 to 5.3754e-006
Heightened Def Con from 5.42558e-006 to 5.42558e-006
Heightened Def Con from 5.42558e-006 to 5.42558e-006
Heightened Def Con from 5.42558e-006 to 5.42558e-006
Heightened Def Con from 5.52559e-006 to 5.52559e-006
Heightened Def Con from 5.77543e-006 to 5.77543e-006
Heightened Def Con from 5.77543e-006 to 5.77543e-006
Heightened Def Con from 5.77543e-006 ++++to 5.77543e-006
Heightened Def Con from 5.77543e-006 ++++++to 5.77543e-006
Heightened Def Con from 5.77543e-006 to 5.77543e-006
Heightened Def Con from 5.77543e-006 to 5.77543e-006
Heightened Def Con from 5.77543e-006 to 5.77543e-006
Heightened Def Con from 6.17541e-006 to 6.17541e-006
Heightened Def Con from 6.17541e-006 ++++to 6.17541e-006
Heightened Def Con from 6.17541e-006 +++++to 6.17541e-006
Heightened Def Con from 6.52558e-006 to 6.52558e-006
Heightened Def Con from 6.67543e-006 to 6.67543e-006
Heightened Def Con from 6.67543e-006 to 6.67543e-006
Heightened Def Con from 7.02558e-006 to 7.02558e-006
Heightened Def Con from 7.52558e-006 to 7.52558e-006
Heightened Def Con from 7.52558e-006 to 7.52558e-006
Heightened Def Con from 7.62558e-006 to 7.62558e-006
Heightened Def Con from 7.62558e-006 to 7.62558e-006
Heightened Def Con from 7.62558e-006 to 7.62558e-006
Heightened Def Con from 7.62558e-006 +++to 7.62558e-006
Heightened Def Con from 7.62558e-006 to 7.62558e-006
Heightened Def Con from 7.62558e-006 to 7.62558e-006
Heightened Def Con from 7.82558e-006 to 7.82558e-006
Heightened Def Con from 8.22558e-006 to 8.22558e-006
Heightened Def Con from 8.22558e-006 to 8.22558e-006
Heightened Def Con from 8.22558e-006 ++++to 8.22558e-006
Heightened Def Con from 8.22558e-006 to 8.22558e-006
Heightened Def Con from 8.32558e-006 to 8.32558e-006
Heightened Def Con from 8.52558e-006 to 8.52558e-006
Heightened Def Con from 8.52558e-006 to 8.52558e-006
Heightened Def Con from 8.62558e-006 to 8.62558e-006
Heightened Def Con from 8.62558e-006 to 8.62558e-006
Heightened Def Con from 8.82558e-006 +to 8.82558e-006
Heightened Def Con from 8.82558e-006 +to 8.82558e-006
Heightened Def Con from 8.82558e-006 to 8.82558e-006
Heightened Def Con from 9.02557e-006 ++++to 9.02557e-006
Heightened Def Con from 9.02557e-006 ++++++to 9.02557e-006
Heightened Def Con from 9.02557e-006 +++++to 9.02557e-006
Heightened Def Con from 9.02557e-006 +to 9.02557e-006
Heightened Def Con from 9.02557e-006 +++to 9.02557e-006
Heightened Def Con from 9.02557e-006 to 9.02557e-006
Heightened Def Con from 9.12557e-006 to 9.12557e-006
Heightened Def Con from 9.12557e-006 to 9.12557e-006
Heightened Def Con from 9.12557e-006 to 9.12557e-006
Heightened Def Con from 9.52557e-006 to 9.52557e-006
Heightened Def Con from 9.62557e-006 ++++to 9.62557e-006
Heightened Def Con from 9.92557e-006 to 9.92557e-006
Heightened Def Con from 1.11256e-005 ++++to 1.11256e-005
Heightened Def Con from 1.11256e-005 ++++++to 1.11256e-005
Heightened Def Con from 1.11256e-005 +++++++to 1.11256e-005
Heightened Def Con from 1.13256e-005 to 1.13256e-005
Heightened Def Con from 1.13256e-005 to 1.13256e-005
Heightened Def Con from 1.14256e-005 to 1.14256e-005
Heightened Def Con from 1.15256e-005 to 1.15256e-005
Heightened Def Con from 1.15256e-005 to 1.15256e-005
Heightened Def Con from 1.16256e-005 +++++to 1.16256e-005
Heightened Def Con from 1.16256e-005 +++++to 1.16256e-005
Heightened Def Con from 1.16256e-005 ++to 1.16256e-005
Heightened Def Con from 1.16256e-005 to 1.16256e-005
Heightened Def Con from 1.17256e-005 to 1.17256e-005
Heightened Def Con from 1.17256e-005 to 1.17256e-005
Heightened Def Con from 1.17256e-005 ++to 1.17256e-005
Heightened Def Con from 1.17256e-005 +to 1.17256e-005
Heightened Def Con from 1.17256e-005 to 1.17256e-005
Heightened Def Con from 1.17256e-005 to 1.17256e-005
Heightened Def Con from 1.18256e-005 to 1.18256e-005
Heightened Def Con from 1.19256e-005 to 1.19256e-005
Heightened Def Con from 1.19256e-005 to 1.19256e-005
Heightened Def Con from 1.19256e-005 to 1.19256e-005
Heightened Def Con from 1.35238e-005 to 1.35238e-005
Heightened Def Con from 1.54256e-005 +++++++to 1.54256e-005
Heightened Def Con from 1.57256e-005 to 1.57256e-005
Heightened Def Con from 1.58256e-005 to 1.58256e-005
Heightened Def Con from 1.61256e-005 +++++to 1.61256e-005
Heightened Def Con from 1.61256e-005 +++++++to 1.61256e-005
Heightened Def Con from 1.62256e-005 +to 1.62256e-005
Heightened Def Con from 1.62256e-005 to 1.62256e-005
Heightened Def Con from 1.62256e-005 +to 1.62256e-005
Heightened Def Con from 1.62256e-005 ++++to 1.62256e-005
Heightened Def Con from 1.62256e-005 ++++++to 1.62256e-005
Heightened Def Con from 1.62256e-005 +++++to 1.62256e-005
Heightened Def Con from 1.62256e-005 to 1.62256e-005
Heightened Def Con from 1.63256e-005 to 1.63256e-005
Heightened Def Con from 1.63256e-005 to 1.63256e-005
Heightened Def Con from 1.63256e-005 to 1.63256e-005
Heightened Def Con from 1.65256e-005 to 1.65256e-005
Heightened Def Con from 1.65256e-005 to 1.65256e-005
Heightened Def Con from 1.66256e-005 to 1.66256e-005
Heightened Def Con from 1.66256e-005 to 1.66256e-005
Heightened Def Con from 1.66256e-005 to 1.66256e-005
Heightened Def Con from 1.66256e-005 to 1.66256e-005
Heightened Def Con from 1.66256e-005 to 1.66256e-005
Heightened Def Con from 1.66256e-005 to 1.66256e-005
Heightened Def Con from 1.67256e-005 to 1.67256e-005
Heightened Def Con from 1.68256e-005 to 1.68256e-005
Heightened Def Con from 1.68256e-005 to 1.68256e-005
Heightened Def Con from 1.68256e-005 to 1.68256e-005
Heightened Def Con from 1.68256e-005 to 1.68256e-005
Heightened Def Con from 1.72256e-005 to 1.72256e-005
Heightened Def Con from 1.73256e-005 ++to 1.73256e-005
Heightened Def Con from 1.73256e-005 to 1.73256e-005
Heightened Def Con from 1.74256e-005 to 1.74256e-005
Heightened Def Con from 1.78256e-005 to 1.78256e-005
Heightened Def Con from 1.78256e-005 to 1.78256e-005
Heightened Def Con from 1.79256e-005 +to 1.79256e-005
Heightened Def Con from 1.79256e-005 ++to 1.79256e-005
Heightened Def Con from 1.79256e-005 ++++++to 1.79256e-005
Heightened Def Con from 1.79256e-005 +++++to 1.79256e-005
Heightened Def Con from 1.79256e-005 to 1.79256e-005
Heightened Def Con from 1.81256e-005 to 1.81256e-005
Heightened Def Con from 1.88256e-005 to 1.88256e-005
Heightened Def Con from 1.93366e-005 to 1.93366e-005

Date: Wed Nov 06 23:10:07 2024
Total elapsed time: 1.055 seconds.

tnom = 27
temp = 27
method = modified trap
totiter = 225665
traniter = 225171
tranpoints = 47431
accept = 37385
rejected = 10416
matrix size = 75
fillins = 49
solver = Normal
Thread vector: 2.7/2.4[2] 1.0/0.8[2] 0.9/0.7[2] 0.1/0.3[1]  2592/500
Matrix Compiler1: 5.67 KB object code size  0.8/0.3/[0.2]
Matrix Compiler2: 7.27 KB object code size  0.5/0.5/[0.3]

